Circuit: * C:\Users\dinod\Desktop\Audio amplifier & power supply\Simulation\PSU\Current limit\Current limit v1.asc

Limiting fall time of source i1 to 1
Limiting fall time of source v1 to 1e-06
Direct Newton iteration failed to find .op point.  (Use ".option noopiter" to skip.)
Starting Gmin stepping
Gmin = 10
Gmin = 1.07374
vernier = 0.5
vernier = 0.25
vernier = 0.125
vernier = 0.0625
vernier = 0.03125
Gmin = 1.31128
vernier = 0.0416667
Gmin = 1.19447
vernier = 0.0555555
vernier = 0.074074
Gmin = 1.02178
vernier = 0.037037
vernier = 0.0185185
vernier = 0.00925925
Gmin = 1.01463
vernier = 0.0123457
vernier = 0.00617283
vernier = 0.00308642
vernier = 0.00154321
vernier = 0.000771604
vernier = 0.000578703
Gmin = 1.00374
vernier = 0.000434027
Gmin = 0
Gmin stepping failed

Starting source stepping with srcstepmethod=0
Source Step = 3.0303%
vernier = 0.25
Source Step = 7.57576%
Source Step = 15.1515%
Source Step = 22.7273%
Source Step = 30.303%
Source Step = 37.8788%
vernier = 0.375
Source Step = 48.8636%
Source Step = 60.2273%
Source Step = 71.5909%
Source Step = 82.9545%
Source Step = 94.3182%
vernier = 0.5625
Source stepping succeeded in finding the operating point.

Heightened Def Con from 1.00053 to 1.00053
Heightened Def Con from 1.00053 +++++++++++++++++to 1.00053
Heightened Def Con from 1.00151 to 1.00151

Date: Sat May 10 21:18:35 2025
Total elapsed time: 0.570 seconds.

tnom = 27
temp = 27
method = modified trap
totiter = 30047
traniter = 27293
tranpoints = 6197
accept = 4812
rejected = 1405
matrix size = 153
fillins = 381
solver = Normal
Avg thread counts: 1.3/2.2/1.7/1.3
Matrix Compiler1: 29.11 KB object code size  8.3/2.6/[2.3]
Matrix Compiler2: 19.38 KB object code size  1.0/1.4/[0.6]

