Circuit: * C:\Users\dinod\Desktop\Audio amplifier & power supply\Simulation\PSU\Draft2.asc

WARNING: Less than two connections to node n002.  This node is used by a1.
Direct Newton iteration for .op point succeeded.

Date: Mon Apr  7 17:15:20 2025
Total elapsed time: 0.059 seconds.

tnom = 27
temp = 27
method = modified trap
totiter = 2091
traniter = 2088
tranpoints = 1045
accept = 1045
rejected = 0
matrix size = 3
fillins = 0
solver = Normal
Avg thread counts: 4.5/8.1/8.1/4.5
Matrix Compiler1: off  [0.1]/0.1/0.1
Matrix Compiler2: off  [0.0]/0.0/0.1

