Circuit: * C:\Users\dinod\Desktop\Audio amplifier & power supply\Simulation\PSU\SR voltage levels.asc

Fatal Error: vhigh: Missing node(s).
