Circuit: * C:\Users\dinod\Desktop\Audio amplifier & power supply\Simulation\Old\Power stage.asc

Warning: Multiple definitions of model "2scr375p" Type: BJT
Warning: Multiple definitions of model "bc857b" Type: BJT
Warning: Multiple definitions of model "bc847c" Type: BJT
Warning: Multiple definitions of model "bc847b" Type: BJT
Direct Newton iteration for .op point succeeded.

Date: Sun Jun 15 19:19:39 2025
Total elapsed time: 0.303 seconds.

tnom = 27
temp = 27
method = modified trap
totiter = 26350
traniter = 26341
tranpoints = 6562
accept = 5073
rejected = 1489
matrix size = 163
fillins = 193
solver = Normal
Avg thread counts: 1.3/2.1/1.4/1.3
Matrix Compiler1: 19.40 KB object code size  2.8/1.1/[0.7]
Matrix Compiler2: 17.37 KB object code size  1.2/1.1/[0.5]

