Circuit: * C:\Users\dinod\Desktop\Audio amplifier & power supply\Simulation\Power amp with DC servo\power amp with DC servo - AC.asc

Warning: Multiple definitions of model "2scr375p" Type: BJT
Warning: Multiple definitions of model "bc857b" Type: BJT
Warning: Multiple definitions of model "bc847c" Type: BJT
Warning: Multiple definitions of model "bc847b" Type: BJT
Direct Newton iteration for .op point succeeded.

Date: Mon Mar 10 21:12:43 2025
Total elapsed time: 0.081 seconds.

tnom = 27
temp = 27
method = trap
totiter = 9
traniter = 0
tranpoints = 0
accept = 0
rejected = 0
matrix size = 440
fillins = 577
solver = Normal
Avg thread counts: 20.0/0.0/20.0/8.3
Matrix Compiler1:    3151 opcodes
Matrix Compiler2: 47.74 KB object code size
