Circuit: * C:\Users\dinod\Desktop\Audio amplifier & power supply\Simulation\Power amp with DC servo\power stage with dc servo-transient.asc

Warning: Multiple definitions of model "2scr375p" Type: BJT
Warning: Multiple definitions of model "bc857b" Type: BJT
Warning: Multiple definitions of model "bc847c" Type: BJT
Warning: Multiple definitions of model "bc847b" Type: BJT
Limiting fall time of source v1 to 1
Direct Newton iteration for .op point succeeded.

Date: Mon Mar 10 20:58:39 2025
Total elapsed time: 0.180 seconds.

tnom = 27
temp = 27
method = modified trap
totiter = 8514
traniter = 8505
tranpoints = 2514
accept = 2102
rejected = 412
matrix size = 164
fillins = 197
solver = Normal
Avg thread counts: 1.9/3.9/2.3/1.9
Matrix Compiler1: 19.71 KB object code size  3.9/1.6/[0.7]
Matrix Compiler2: 17.62 KB object code size  1.3/1.5/[0.6]

