Circuit: * C:\Users\dinod\Desktop\Audio amplifier & power supply\Amplifier OLD\Simulation V2\Power stage\Power stage - AC.asc

Warning: Multiple definitions of model "2scr375p" Type: BJT
Warning: Multiple definitions of model "bc857b" Type: BJT
Warning: Multiple definitions of model "bc847c" Type: BJT
Warning: Multiple definitions of model "bc847b" Type: BJT
Direct Newton iteration for .op point succeeded.
Heightened Def Con from 8.21401e-05 to 8.21403e-05
Heightened Def Con from 0.000175324 +++++++++++++++++++++++++to 0.000175324
Heightened Def Con from 0.00017541 +to 0.00017541
Heightened Def Con from 0.000175435 to 0.000175437
Heightened Def Con from 0.000424888 to 0.000424889
Heightened Def Con from 0.000425426 to 0.000425426
Heightened Def Con from 0.000582141 to 0.000582141
Heightened Def Con from 0.000675419 to 0.000675422
Heightened Def Con from 0.000832364 to 0.000832365
Heightened Def Con from 0.000925376 +to 0.000925378
Heightened Def Con from 0.000925415 to 0.000925416
Heightened Def Con from 0.00117519 to 0.00117519
Heightened Def Con from 0.00117532 +++++++++++++++++++++++++++++to 0.00117532
Heightened Def Con from 0.00142491 to 0.00142491
Heightened Def Con from 0.00142519 to 0.00142519
Heightened Def Con from 0.00142532 to 0.00142532
Heightened Def Con from 0.00142542 to 0.00142542
Heightened Def Con from 0.00167535 ++++++++++++++++++++++++++++to 0.00167535
Heightened Def Con from 0.00192533 +to 0.00192533
Heightened Def Con from 0.00192533 to 0.00192533
Heightened Def Con from 0.00192538 +to 0.00192539
Heightened Def Con from 0.00192542 to 0.00192542
Heightened Def Con from 0.00192542 to 0.00192542

Date: Sat Mar 15 00:18:40 2025
Total elapsed time: 0.497 seconds.

tnom = 27
temp = 27
method = modified trap
totiter = 54019
traniter = 54008
tranpoints = 12865
accept = 8748
rejected = 4226
matrix size = 161
fillins = 191
solver = Normal
Avg thread counts: 1.1/1.6/1.4/1.1
Matrix Compiler1: 19.30 KB object code size  2.6/1.3/[0.7]
Matrix Compiler2: 17.20 KB object code size  0.8/1.3/[0.6]

