Circuit: * C:\Users\dinod\Desktop\Audio amplifier & power supply\Simulation V2\Gain stage\Draft1.asc

WARNING: Less than two connections to node nc_01.  This node is used by r:u4:_rs_inp.
Direct Newton iteration failed to find .op point.  (Use ".option noopiter" to skip.)
Starting Gmin stepping
Gmin = 10
Gmin = 1.07374
vernier = 0.5
vernier = 0.25
vernier = 0.125
vernier = 0.0625
vernier = 0.03125
Gmin = 1.31128
vernier = 0.015625
vernier = 0.0078125
vernier = 0.00390625
Gmin = 1.30109
vernier = 0.00195312
vernier = 0.000976562
vernier = 0.000488281
Gmin = 0
Gmin stepping failed

Starting source stepping with srcstepmethod=0
Source Step = 3.0303%
vernier = 0.25
Source Step = 1.70455%
Source Step = 3.59848%
Source Step = 5.49242%
Source Step = 7.38636%
Source Step = 9.2803%
vernier = 0.09375
Source Step = 11.4347%
vernier = 0.00585938
Source Step = 11.4036%
Source Step = 11.448%
Source Step = 11.4924%
Source Step = 11.5368%
Source Step = 11.5811%
vernier = 0.00219727
Source Step = 11.6344%
Source Step = 11.701%
Source Step = 11.7676%
Source Step = 11.8342%
Source Step = 11.9007%
vernier = 0.0032959
Source Step = 11.9773%
Source Step = 12.0772%
Source Step = 12.1771%
Source Step = 12.2769%
Source Step = 12.3768%
vernier = 0.00494385
Source Step = 12.4867%
Source Step = 12.6365%
Source Step = 12.7863%
Source Step = 12.9361%
Source Step = 13.0859%
vernier = 0.00741577
Source Step = 13.2432%
Source Step = 13.468%
Source Step = 13.6927%
Source Step = 13.9174%
Source Step = 14.1421%
Source Step = 14.3668%
vernier = 0.0111237
Source Step = 14.7039%
Source Step = 15.041%
Source Step = 15.3781%
Source Step = 15.7152%
Source Step = 16.0522%
vernier = 0.0166855
Source Step = 16.541%
Source Step = 17.0466%
Source Step = 17.5523%
Source Step = 18.0579%
Source Step = 18.5635%
vernier = 0.0250282
Source Step = 19.2714%
Source Step = 20.0298%
Source Step = 20.7882%
Source Step = 21.5467%
Source Step = 22.3051%
vernier = 0.0375423
Source Step = 23.329%
Source Step = 24.4666%
Source Step = 25.6043%
Source Step = 26.7419%
Source Step = 27.8796%
vernier = 0.0563135
Source Step = 29.3585%
Source Step = 31.065%
Source Step = 32.7714%
Source Step = 34.4779%
Source Step = 36.1844%
vernier = 0.0844703
Source Step = 38.3175%
Source Step = 40.8772%
Source Step = 43.4369%
Source Step = 45.9966%
Source Step = 48.5563%
vernier = 0.126705
Source Step = 51.6279%
Source Step = 55.4675%
Source Step = 59.3071%
Source Step = 63.1466%
Source Step = 66.9862%
vernier = 0.190058
Source Step = 71.4017%
Source Step = 77.161%
Source Step = 82.9203%
Source Step = 88.6797%
Source Step = 94.439%
Source Step = 97.9036%
Source Step = 97.9936%
Source stepping aborted.
Starting source stepping with srcstepmethod=1
Source Step = 3.0303%
Source Step = 33.3333%
Source Step = 63.6364%
Source Step = 93.9394%
Source Step = 96.9815%
Source stepping failed

Pseudo Transient succeeded in finding the operating point at 18.2456 s.

Date: Thu Mar 13 12:12:33 2025
Total elapsed time: 4.821 seconds.

tnom = 27
temp = 27
method = trap
totiter = 56654
traniter = 0
tranpoints = 0
accept = 0
rejected = 1202
matrix size = 557
fillins = 1523
solver = Normal
Avg thread counts: 3.1/2.5/1.2/1.1
Matrix Compiler1: 124.86 KB object code size  15.2/6.0/[5.8]
Matrix Compiler2: 74.17 KB object code size  5.7/6.9/[3.2]

