Circuit: * C:\Users\dinod\Desktop\Audio amplifier & power supply\Simulation V2\Gain stage\Gain stage AC.asc

Direct Newton iteration for .op point succeeded.

Date: Thu Mar 13 12:56:50 2025
Total elapsed time: 0.148 seconds.

tnom = 27
temp = 27
method = trap
totiter = 5
traniter = 0
tranpoints = 0
accept = 0
rejected = 0
matrix size = 421
fillins = 552
solver = Normal
Avg thread counts: 20.0/0.0/20.0/2.2
Matrix Compiler1:    2971 opcodes
Matrix Compiler2: 45.31 KB object code size
