Circuit: * C:\Users\dinod\Desktop\Audio amplifier & power supply\Simulation V2\GBW.asc

Number of points per decade reduced from 100000 to 8077.
Direct Newton iteration failed to find .op point.  (Use ".option noopiter" to skip.)
Starting Gmin stepping
Gmin = 10
Gmin = 1.07374
vernier = 0.5
vernier = 0.25
vernier = 0.125
vernier = 0.0625
vernier = 0.03125
Gmin = 1.03313
vernier = 0.015625
vernier = 0.0208333
vernier = 0.0104167
vernier = 0.00520833
Gmin = 1.0211
vernier = 0.00260417
Gmin = 1.01316
vernier = 0.00347222
vernier = 0.00462963
Gmin = 1.00376
vernier = 0.00617283
vernier = 0.00308642
vernier = 0.00154321
vernier = 0.000771604
Gmin = 1.00009
vernier = 0.000578703
vernier = 0.000434027
Gmin = 0
Gmin stepping failed

Starting source stepping with srcstepmethod=0
Source Step = 3.0303%
vernier = 0.25
Source Step = 1.70455%
Source Step = 3.59848%
Source Step = 5.49242%
Source Step = 7.38636%
Source Step = 9.2803%
vernier = 0.09375
Source Step = 11.9318%
Source Step = 14.7727%
Source Step = 17.6136%
Source Step = 20.4545%
Source Step = 23.2955%
vernier = 0.140625
Source Step = 27.1307%
Source Step = 31.392%
Source Step = 35.6534%
Source Step = 39.9148%
Source Step = 44.1761%
vernier = 0.210938
Source Step = 49.7159%
Source Step = 56.108%
Source Step = 62.5%
Source Step = 68.892%
Source Step = 75.2841%
vernier = 0.316406
Source Step = 83.2741%
Source Step = 92.8622%
Source stepping succeeded in finding the operating point.


Date: Thu Mar 13 12:54:15 2025
Total elapsed time: 0.638 seconds.

tnom = 27
temp = 27
method = trap
totiter = 3149
traniter = 0
tranpoints = 0
accept = 0
rejected = 0
matrix size = 143
fillins = 382
solver = Normal
Avg thread counts: 3.3/0.0/17.7/1.1
Matrix Compiler1:    1659 opcodes
Matrix Compiler2: 18.53 KB object code size  0.8/1.1/[0.5]

