Circuit: * C:\Users\dinod\Desktop\Audio amplifier & power supply\Simulation V2\Power stage (DC servo)\Power stage - AC.asc

Warning: Multiple definitions of model "2scr375p" Type: BJT
Warning: Multiple definitions of model "bc857b" Type: BJT
Warning: Multiple definitions of model "bc847c" Type: BJT
Warning: Multiple definitions of model "bc847b" Type: BJT
Direct Newton iteration for .op point succeeded.

Date: Thu Mar 13 11:50:22 2025
Total elapsed time: 0.041 seconds.

tnom = 27
temp = 27
method = trap
totiter = 9
traniter = 0
tranpoints = 0
accept = 0
rejected = 0
matrix size = 162
fillins = 191
solver = Normal
Avg thread counts: 20.0/0.0/20.0/8.3
Matrix Compiler1:    1099 opcodes
Matrix Compiler2: 17.37 KB object code size
