Circuit: * C:\Users\dinod\Desktop\Audio amplifier & power supply\Simulation\Amplifier\Bias current.asc

Warning: Multiple definitions of model "2scr375p" Type: BJT
Warning: Multiple definitions of model "bc857b" Type: BJT
Warning: Multiple definitions of model "bc847c" Type: BJT
Warning: Multiple definitions of model "bc847b" Type: BJT
Direct Newton iteration for .op point succeeded.
.step rb=10
.step rb=100
.step rb=1000
.step rb=10000

Date: Sat Jun  7 19:45:59 2025
Total elapsed time: 31.086 seconds.

tnom = 27
temp = 27
method = modified trap
totiter = 2004971
traniter = 2004957
tranpoints = 1002472
accept = 1002036
rejected = 436
matrix size = 32
fillins = 36
solver = Normal
Avg thread counts: 1.0/1.0/1.0/1.0
Matrix Compiler1:     255 opcodes  1.0/[0.4]/0.6
Matrix Compiler2: off  [0.3]/0.4/0.5

