Circuit: * C:\Users\dinod\Desktop\Audio amplifier & power supply\Simulation\Amplifier\Bias voltage.asc

Warning: Multiple definitions of model "2scr375p" Type: BJT
Warning: Multiple definitions of model "bc857b" Type: BJT
Warning: Multiple definitions of model "bc847c" Type: BJT
Warning: Multiple definitions of model "bc847b" Type: BJT
Direct Newton iteration for .op point succeeded.
.step r=0.5
.step r=0.75
.step r=1
.step r=1.25
.step r=1.5

Date: Sat Jun  7 19:12:17 2025
Total elapsed time: 5.440 seconds.

tnom = 27
temp = 27
method = modified trap
totiter = 267024
traniter = 267008
tranpoints = 117094
accept = 110415
rejected = 6679
matrix size = 32
fillins = 36
solver = Normal
Avg thread counts: 1.0/1.1/1.1/1.0
Matrix Compiler1: 4.65 KB object code size  0.8/0.4/[0.3]
Matrix Compiler2: 3.54 KB object code size  0.3/0.4/[0.3]

