Circuit: * C:\Users\dinod\Desktop\Audio amplifier & power supply\Simulation\Amplifier\Draft2.asc

Warning: Multiple definitions of model "2scr375p" Type: BJT
Warning: Multiple definitions of model "bc857b" Type: BJT
Warning: Multiple definitions of model "bc847c" Type: BJT
Warning: Multiple definitions of model "bc847b" Type: BJT
Direct Newton iteration for .op point succeeded.
.step rb=10
.step rb=100
.step rb=1000
.step rb=10000

Date: Sat Jun  7 19:22:35 2025
Total elapsed time: 4.103 seconds.

tnom = 27
temp = 27
method = modified trap
totiter = 289182
traniter = 289168
tranpoints = 140142
accept = 128307
rejected = 11835
matrix size = 32
fillins = 36
solver = Normal
Avg thread counts: 1.0/1.1/1.1/1.0
Matrix Compiler1:     255 opcodes  0.7/[0.3]/0.5
Matrix Compiler2: off  [0.2]/0.4/0.5

