WARNING: Can't resolve .param rb=rtot/(1+r)
Circuit: * C:\Users\dinod\Desktop\Audio amplifier & power supply\Simulation\Amplifier\Draft1.asc

Warning: Multiple definitions of model "2scr375p" Type: BJT
Warning: Multiple definitions of model "bc857b" Type: BJT
Warning: Multiple definitions of model "bc847c" Type: BJT
Warning: Multiple definitions of model "bc847b" Type: BJT
Direct Newton iteration for .op point succeeded.
.step ra=500
.step ra=750
.step ra=1000
.step ra=1250
.step ra=1500

Date: Sat Jun  7 19:13:47 2025
Total elapsed time: 17.491 seconds.

tnom = 27
temp = 27
method = modified trap
totiter = 250534
traniter = 250516
tranpoints = 111545
accept = 106846
rejected = 4699
matrix size = 32
fillins = 36
solver = Normal
Avg thread counts: 1.0/1.1/1.1/1.0
Matrix Compiler1: 4.65 KB object code size  0.9/0.3/[0.2]
Matrix Compiler2:     267 opcodes  0.2/[0.2]/0.2

