Circuit: * C:\Users\dinod\Desktop\Audio amplifier & power supply\Simulation\PSU\Rectifier\Rectifier comparison.asc

.OP point found by inspection.

Date: Wed May 28 23:16:50 2025
Total elapsed time: 0.070 seconds.

tnom = 27
temp = 27
method = modified trap
totiter = 3260
traniter = 3260
tranpoints = 1147
accept = 1127
rejected = 20
matrix size = 12
fillins = 0
solver = Normal
Avg thread counts: 3.3/7.4/7.5/3.3
Matrix Compiler1:      17 opcodes  0.1/[0.1]/0.1
Matrix Compiler2: 756 bytes object code size  0.1/0.1/[0.1]

