Circuit: * C:\Users\dinod\Desktop\Audio amplifier & power supply\Simulation V2\Preamp\Preamp AC.asc

Number of points per decade reduced from 100000 to 8077.
Direct Newton iteration for .op point succeeded.

Date: Thu Mar 13 12:54:56 2025
Total elapsed time: 1.448 seconds.

tnom = 27
temp = 27
method = trap
totiter = 5
traniter = 0
tranpoints = 0
accept = 0
rejected = 0
matrix size = 556
fillins = 698
solver = Normal
Avg thread counts: 20.0/0.0/20.0/1.1
Matrix Compiler1:    3800 opcodes
Matrix Compiler2: 59.45 KB object code size
