Circuit: * C:\Users\dinod\Desktop\Audio amplifier & power supply\Simulation\Amplifier\Output stage\Draft2.asc

Warning: Multiple definitions of model "2scr375p" Type: BJT
Warning: Multiple definitions of model "bc857b" Type: BJT
Warning: Multiple definitions of model "bc847c" Type: BJT
Warning: Multiple definitions of model "bc847b" Type: BJT
Direct Newton iteration for .op point succeeded.
.fourier quantity "V(vout)" not pressent in data.


Date: Wed Jul  2 21:25:34 2025
Total elapsed time: 0.456 seconds.

tnom = 27
temp = 27
method = modified trap
totiter = 200040
traniter = 200034
tranpoints = 100018
accept = 100018
rejected = 0
matrix size = 9
fillins = 0
solver = Normal
Avg thread counts: 1.0/1.1/1.1/1.0
Matrix Compiler1: 376 bytes object code size  0.2/0.1/[0.1]
Matrix Compiler2: 687 bytes object code size  0.1/0.1/[0.1]

