Circuit: * C:\Users\dinod\Desktop\Audio amplifier & power supply\Simulation\Amplifier\Output stage\V1.asc

Warning: Multiple definitions of model "2scr375p" Type: BJT
Warning: Multiple definitions of model "bc857b" Type: BJT
Warning: Multiple definitions of model "bc847c" Type: BJT
Warning: Multiple definitions of model "bc847b" Type: BJT
Direct Newton iteration for .op point succeeded.
Heightened Def Con from 5e-12 to 2.005e-09
N-Period=100
Fourier components of V(vout)
DC component:0.000253066

Harmonic	Frequency	 Fourier 	Normalized	 Phase  	Normalized
 Number 	  [Hz]   	Component	 Component	[degree]	Phase [deg]
    1   	 1.000e+4	 4.998e+0	 1.000e+0	   90.11°	    0.00°
    2   	 2.000e+4	 5.965e-6	 1.193e-6	  -57.54°	 -147.65°
    3   	 3.000e+4	 2.977e-5	 5.956e-6	    8.11°	  -81.99°
    4   	 4.000e+4	 2.907e-6	 5.816e-7	 -100.75°	 -190.86°
    5   	 5.000e+4	 6.798e-6	 1.360e-6	  -28.95°	 -119.06°
    6   	 6.000e+4	 1.369e-6	 2.739e-7	 -138.12°	 -228.23°
    7   	 7.000e+4	 1.743e-6	 3.488e-7	  -71.03°	 -161.14°
    8   	 8.000e+4	 4.860e-7	 9.723e-8	 -176.58°	 -266.69°
    9   	 9.000e+4	 4.230e-7	 8.462e-8	 -111.18°	 -201.28°
   10   	 1.000e+5	 1.555e-7	 3.111e-8	  145.34°	   55.23°
   11   	 1.100e+5	 9.576e-8	 1.916e-8	 -150.37°	 -240.47°
   12   	 1.200e+5	 4.615e-8	 9.233e-9	  108.14°	   18.03°
   13   	 1.300e+5	 2.341e-8	 4.682e-9	  168.93°	   78.82°
   14   	 1.400e+5	 1.279e-8	 2.559e-9	   72.61°	  -17.50°
   15   	 1.500e+5	 3.815e-9	 7.633e-10	  112.71°	   22.60°
   16   	 1.600e+5	 3.197e-9	 6.396e-10	   44.50°	  -45.61°
   17   	 1.700e+5	 3.123e-9	 6.249e-10	  152.87°	   62.76°
   18   	 1.800e+5	 3.828e-10	 7.659e-11	   80.78°	   -9.33°
   19   	 1.900e+5	 1.878e-9	 3.757e-10	    8.82°	  -81.29°
   20   	 2.000e+5	 6.022e-10	 1.205e-10	  157.72°	   67.61°
Partial Harmonic Distortion: 0.000627%
Total Harmonic Distortion:   0.003678%



Date: Fri Jun 20 21:11:51 2025
Total elapsed time: 4.886 seconds.

tnom = 27
temp = 27
method = modified trap
totiter = 404379
traniter = 404373
tranpoints = 200076
accept = 200050
rejected = 27
matrix size = 175
fillins = 217
solver = Normal
Avg thread counts: 1.0/1.0/1.0/1.0
Matrix Compiler1: 21.86 KB object code size  4.2/1.8/[1.0]
Matrix Compiler2: 18.95 KB object code size  1.5/1.7/[0.8]

