Circuit: * C:\Users\dinod\Desktop\Audio amplifier & power supply\Simulation\Amplifier\Output stage\V2 THD.asc

Warning: Multiple definitions of model "2scr375p" Type: BJT
Warning: Multiple definitions of model "bc857b" Type: BJT
Warning: Multiple definitions of model "bc847c" Type: BJT
Warning: Multiple definitions of model "bc847b" Type: BJT
Direct Newton iteration for .op point succeeded.
N-Period=100
Fourier components of V(vout)
DC component:0.000252993

Harmonic	Frequency	 Fourier 	Normalized	 Phase  	Normalized
 Number 	  [Hz]   	Component	 Component	[degree]	Phase [deg]
    1   	 1.000e+4	 4.998e+0	 1.000e+0	   90.11°	    0.00°
    2   	 2.000e+4	 7.917e-6	 1.584e-6	   64.35°	  -25.76°
    3   	 3.000e+4	 3.046e-5	 6.094e-6	    4.06°	  -86.05°
    4   	 4.000e+4	 3.878e-6	 7.759e-7	 -101.20°	 -191.31°
    5   	 5.000e+4	 5.302e-6	 1.061e-6	  -39.22°	 -129.33°
    6   	 6.000e+4	 1.093e-6	 2.187e-7	 -150.70°	 -240.81°
    7   	 7.000e+4	 1.354e-6	 2.708e-7	  -80.66°	 -170.77°
    8   	 8.000e+4	 3.836e-7	 7.675e-8	  174.76°	   84.65°
    9   	 9.000e+4	 3.048e-7	 6.098e-8	 -127.10°	 -217.21°
   10   	 1.000e+5	 1.157e-7	 2.314e-8	  130.94°	   40.83°
   11   	 1.100e+5	 6.102e-8	 1.221e-8	 -167.39°	 -257.50°
   12   	 1.200e+5	 3.101e-8	 6.204e-9	   88.80°	   -1.31°
   13   	 1.300e+5	 1.590e-8	 3.181e-9	  145.68°	   55.57°
   14   	 1.400e+5	 7.514e-9	 1.503e-9	   53.77°	  -36.33°
   15   	 1.500e+5	 1.786e-9	 3.572e-10	   -3.87°	  -93.98°
   16   	 1.600e+5	 2.892e-9	 5.787e-10	    2.25°	  -87.86°
   17   	 1.700e+5	 3.437e-9	 6.875e-10	  119.82°	   29.71°
   18   	 1.800e+5	 5.973e-10	 1.195e-10	 -150.33°	 -240.44°
   19   	 1.900e+5	 3.621e-9	 7.245e-10	  -63.21°	 -153.32°
   20   	 2.000e+5	 8.247e-10	 1.650e-10	  -23.63°	 -113.74°
Partial Harmonic Distortion: 0.000644%
Total Harmonic Distortion:   0.003686%



Date: Sat Jun 21 20:51:51 2025
Total elapsed time: 5.645 seconds.

tnom = 27
temp = 27
method = modified trap
totiter = 418260
traniter = 418254
tranpoints = 201643
accept = 201235
rejected = 408
matrix size = 178
fillins = 222
solver = Normal
Avg thread counts: 1.0/2.0/1.0/1.0
Matrix Compiler1: 22.43 KB object code size  3.0/1.7/[0.9]
Matrix Compiler2: 19.38 KB object code size  1.1/1.5/[0.7]

