Circuit: * C:\Users\dinod\Desktop\Power amplifier\Power-amplifier\Simulation\Amplifier\Output stage\V5 DC.asc

Warning: Multiple definitions of model "2scr375p" Type: BJT
Warning: Multiple definitions of model "bc857b" Type: BJT
Warning: Multiple definitions of model "bc847c" Type: BJT
Warning: Multiple definitions of model "bc847b" Type: BJT
Direct Newton iteration for .op point succeeded.
Heightened Def Con from 7.07863e-05 to 7.07863e-05
Heightened Def Con from 7.07863e-05 to 7.07864e-05
Heightened Def Con from 7.07865e-05 to 7.07865e-05
Heightened Def Con from 7.07865e-05 to 7.07876e-05
Heightened Def Con from 7.07877e-05 to 7.07878e-05
Heightened Def Con from 7.07878e-05 to 7.07878e-05
Heightened Def Con from 7.07878e-05 to 7.07878e-05
Heightened Def Con from 7.07878e-05 to 7.07879e-05
Heightened Def Con from 7.0788e-05 to 7.0788e-05
Heightened Def Con from 7.0788e-05 to 7.0788e-05
Heightened Def Con from 7.0788e-05 +to 7.0788e-05
Heightened Def Con from 7.0788e-05 to 7.0788e-05
Heightened Def Con from 7.0788e-05 to 7.07881e-05
Heightened Def Con from 7.07881e-05 to 7.07881e-05
Heightened Def Con from 7.07881e-05 to 7.07882e-05
Heightened Def Con from 7.07882e-05 to 7.07882e-05
Heightened Def Con from 7.07882e-05 +to 7.07882e-05
Heightened Def Con from 7.07882e-05 to 7.07884e-05
Heightened Def Con from 7.07884e-05 to 7.07886e-05
Heightened Def Con from 7.07887e-05 to 7.07887e-05
Heightened Def Con from 7.07887e-05 to 7.07897e-05
Heightened Def Con from 7.07897e-05 to 7.07898e-05
Heightened Def Con from 7.07898e-05 to 7.07898e-05
Heightened Def Con from 7.07898e-05 +to 7.07899e-05
Heightened Def Con from 7.079e-05 to 7.079e-05
Heightened Def Con from 7.07901e-05 to 7.07904e-05
Heightened Def Con from 7.07904e-05 to 7.07934e-05
Heightened Def Con from 7.08066e-05 to 7.08068e-05
Heightened Def Con from 7.08068e-05 +to 7.0807e-05
Heightened Def Con from 7.08071e-05 to 7.08071e-05
Heightened Def Con from 7.08071e-05 to 7.08082e-05
Heightened Def Con from 7.08086e-05 to 7.08086e-05
Heightened Def Con from 7.08086e-05 to 7.08086e-05
Heightened Def Con from 7.08086e-05 to 7.08087e-05
Heightened Def Con from 7.08087e-05 to 7.08097e-05
Heightened Def Con from 7.08098e-05 to 7.08098e-05
Heightened Def Con from 7.08098e-05 to 7.08098e-05
Heightened Def Con from 7.08098e-05 to 7.08128e-05
Heightened Def Con from 8.08326e-05 to 8.08346e-05
Heightened Def Con from 8.08349e-05 to 8.08359e-05
Heightened Def Con from 8.08359e-05 to 8.08379e-05
Heightened Def Con from 8.08382e-05 to 8.08394e-05
Heightened Def Con from 8.08394e-05 to 8.08405e-05
Heightened Def Con from 8.08408e-05 to 8.0841e-05
Heightened Def Con from 8.08415e-05 to 8.08415e-05
Heightened Def Con from 8.08415e-05 to 8.08415e-05
Heightened Def Con from 8.08415e-05 to 8.08425e-05
Heightened Def Con from 8.08425e-05 to 8.08426e-05
Heightened Def Con from 8.08426e-05 to 8.08427e-05
Heightened Def Con from 8.08427e-05 to 8.08429e-05
Heightened Def Con from 8.08432e-05 to 8.08452e-05
Heightened Def Con from 8.08452e-05 to 8.08452e-05
Heightened Def Con from 8.08452e-05 to 8.08452e-05
Heightened Def Con from 8.08452e-05 to 8.08452e-05
Heightened Def Con from 8.08453e-05 to 8.08473e-05
Heightened Def Con from 8.08473e-05 to 8.08483e-05
Heightened Def Con from 8.08483e-05 to 8.08493e-05
Heightened Def Con from 8.08493e-05 to 8.08503e-05
Heightened Def Con from 8.08503e-05 to 8.08503e-05
Heightened Def Con from 8.08506e-05 to 8.08526e-05
Heightened Def Con from 8.08526e-05 to 8.08528e-05
Heightened Def Con from 8.08531e-05 +to 8.08531e-05
Heightened Def Con from 8.08532e-05 to 8.08552e-05
Heightened Def Con from 8.08552e-05 to 8.08562e-05
Heightened Def Con from 8.08562e-05 to 8.08582e-05
Heightened Def Con from 8.08585e-05 to 8.08596e-05
Heightened Def Con from 8.08598e-05 to 8.08618e-05
Heightened Def Con from 8.08618e-05 to 8.08618e-05
Heightened Def Con from 8.08618e-05 to 8.08638e-05
Heightened Def Con from 8.08638e-05 to 8.08648e-05
Heightened Def Con from 8.08648e-05 +to 8.08659e-05
Heightened Def Con from 8.08659e-05 to 8.08671e-05
Heightened Def Con from 8.08671e-05 to 8.08682e-05
Heightened Def Con from 8.08682e-05 to 8.08683e-05
Heightened Def Con from 8.08683e-05 to 8.08686e-05
Heightened Def Con from 8.08686e-05 to 8.08687e-05
Heightened Def Con from 8.08687e-05 to 8.08707e-05
Heightened Def Con from 8.08707e-05 to 8.08708e-05
Heightened Def Con from 8.08708e-05 to 8.08709e-05
Heightened Def Con from 8.08709e-05 to 8.08729e-05
Heightened Def Con from 8.08732e-05 ++to 8.08732e-05
Heightened Def Con from 8.08732e-05 to 8.08752e-05
Heightened Def Con from 8.08753e-05 to 8.08764e-05
Heightened Def Con from 8.08765e-05 to 8.08776e-05
Heightened Def Con from 8.08776e-05 to 8.08786e-05
Heightened Def Con from 8.08786e-05 to 8.08789e-05
Heightened Def Con from 8.10628e-05 to 8.1063e-05
Heightened Def Con from 8.10632e-05 to 8.10632e-05
Heightened Def Con from 8.10633e-05 to 8.10653e-05
Heightened Def Con from 8.10672e-05 +to 8.10692e-05
Heightened Def Con from 8.10692e-05 to 8.10712e-05
Heightened Def Con from 8.10712e-05 to 8.10732e-05
Heightened Def Con from 8.1074e-05 to 8.10751e-05
Heightened Def Con from 8.10751e-05 to 8.10752e-05
Heightened Def Con from 8.10753e-05 +to 8.10773e-05
Heightened Def Con from 8.10775e-05 to 8.10775e-05
Heightened Def Con from 8.10775e-05 to 8.10795e-05
Heightened Def Con from 8.11833e-05 to 8.11843e-05
Heightened Def Con from 8.11843e-05 to 8.11853e-05
Heightened Def Con from 8.11854e-05 to 8.11854e-05
Heightened Def Con from 8.11854e-05 +to 8.11854e-05
Heightened Def Con from 8.11854e-05 to 8.11854e-05
Heightened Def Con from 8.11854e-05 to 8.11855e-05
Heightened Def Con from 8.11856e-05 to 8.11867e-05
Heightened Def Con from 8.11867e-05 +to 8.11871e-05
Heightened Def Con from 8.11871e-05 to 8.11881e-05
Heightened Def Con from 8.11881e-05 +to 8.11901e-05
Heightened Def Con from 8.11901e-05 to 8.11912e-05
Heightened Def Con from 8.11912e-05 to 8.11922e-05
Heightened Def Con from 8.11922e-05 to 8.11922e-05
Heightened Def Con from 8.11922e-05 to 8.11922e-05
Heightened Def Con from 8.11922e-05 to 8.11925e-05
Heightened Def Con from 8.11937e-05 to 8.11967e-05
Heightened Def Con from 8.12147e-05 to 8.12157e-05
Heightened Def Con from 8.12157e-05 to 8.12187e-05
Heightened Def Con from 8.12358e-05 to 8.12358e-05
Heightened Def Con from 8.12358e-05 to 8.12378e-05
Heightened Def Con from 8.12378e-05 to 8.1239e-05
Heightened Def Con from 8.12393e-05 to 8.12403e-05
Heightened Def Con from 8.12403e-05 to 8.12424e-05
Heightened Def Con from 8.12424e-05 to 8.12424e-05
Heightened Def Con from 8.12424e-05 +to 8.12455e-05
Heightened Def Con from 8.12513e-05 to 8.12514e-05
Heightened Def Con from 8.12514e-05 to 8.12516e-05
Heightened Def Con from 8.12516e-05 to 8.12516e-05
Heightened Def Con from 8.12516e-05 to 8.12516e-05
Heightened Def Con from 8.12516e-05 to 8.12546e-05
Heightened Def Con from 8.12546e-05 to 8.12556e-05
Heightened Def Con from 8.12556e-05 to 8.12559e-05
Heightened Def Con from 8.12559e-05 to 8.1256e-05
Heightened Def Con from 8.12562e-05 to 8.12564e-05
Heightened Def Con from 8.12566e-05 to 8.12586e-05
Heightened Def Con from 8.12586e-05 to 8.12587e-05
Heightened Def Con from 8.12587e-05 +to 8.12607e-05
Heightened Def Con from 8.12607e-05 to 8.1261e-05
Heightened Def Con from 8.1261e-05 to 8.1264e-05
Heightened Def Con from 8.1264e-05 to 8.1267e-05
Heightened Def Con from 8.12928e-05 to 8.1293e-05
Heightened Def Con from 8.1293e-05 to 8.1296e-05
Heightened Def Con from 0.000170786 to 0.000170788
Heightened Def Con from 0.000170788 to 0.000170789
Heightened Def Con from 0.00017079 to 0.000170791
Heightened Def Con from 0.000170791 to 0.000170791
Heightened Def Con from 0.000170791 to 0.000170791
Heightened Def Con from 0.000170791 to 0.000170791
Heightened Def Con from 0.000170791 to 0.000170791
Heightened Def Con from 0.000170791 to 0.000170791
Heightened Def Con from 0.000170791 to 0.000170791
Heightened Def Con from 0.000170791 to 0.000170792
Heightened Def Con from 0.000170792 to 0.000170792
Heightened Def Con from 0.000170792 to 0.000170792
Heightened Def Con from 0.000170792 to 0.000170795
Heightened Def Con from 0.000170796 to 0.000170797
Heightened Def Con from 0.000170797 to 0.000170797
Heightened Def Con from 0.000170797 to 0.000170799
Heightened Def Con from 0.000170799 to 0.000170799
Heightened Def Con from 0.000170799 to 0.000170799
Heightened Def Con from 0.000170799 to 0.000170799
Heightened Def Con from 0.000170799 to 0.000170802
Heightened Def Con from 0.000170804 to 0.000170804
Heightened Def Con from 0.000170804 to 0.000170806
Heightened Def Con from 0.000170806 to 0.000170808
Heightened Def Con from 0.000170809 to 0.000170809
Heightened Def Con from 0.000170809 to 0.000170809
Heightened Def Con from 0.000170809 +to 0.000170809
Heightened Def Con from 0.000180983 to 0.000180983
Heightened Def Con from 0.000180983 to 0.000180984
Heightened Def Con from 0.000180984 +to 0.000180986
Heightened Def Con from 0.000180986 to 0.000180987
Heightened Def Con from 0.000180987 to 0.000180988
Heightened Def Con from 0.000180988 to 0.00018099
Heightened Def Con from 0.00018099 to 0.000180991
Heightened Def Con from 0.000180991 to 0.000180991
Heightened Def Con from 0.000180991 to 0.000180992
Heightened Def Con from 0.000180992 to 0.000180994
Heightened Def Con from 0.000180994 to 0.000180995
Heightened Def Con from 0.000180995 to 0.000180996
Heightened Def Con from 0.000180996 to 0.000180997
Heightened Def Con from 0.000180997 to 0.000180997
Heightened Def Con from 0.000180997 to 0.000180997
Heightened Def Con from 0.000180997 to 0.000180999
Heightened Def Con from 0.000181125 to 0.000181125
Heightened Def Con from 0.000181126 to 0.000181126
Heightened Def Con from 0.000181126 to 0.000181127
Heightened Def Con from 0.000181127 to 0.000181127
Heightened Def Con from 0.000181127 to 0.000181127
Heightened Def Con from 0.000181127 to 0.000181129
Heightened Def Con from 0.000181167 to 0.000181168
Heightened Def Con from 0.000181168 to 0.000181168
Heightened Def Con from 0.000181168 to 0.000181168
Heightened Def Con from 0.000181168 to 0.000181169
Heightened Def Con from 0.000181169 to 0.000181171
Heightened Def Con from 0.000181187 to 0.000181188
Heightened Def Con from 0.000181188 to 0.000181188
Heightened Def Con from 0.000181188 to 0.000181189
Heightened Def Con from 0.000181189 to 0.000181189
Heightened Def Con from 0.000181189 to 0.000181189
Heightened Def Con from 0.000181189 to 0.000181189
Heightened Def Con from 0.000181189 to 0.000181189
Heightened Def Con from 0.000181189 to 0.000181192
Heightened Def Con from 0.000181192 to 0.000181192
Heightened Def Con from 0.000181192 to 0.000181192
Heightened Def Con from 0.000181192 to 0.000181195
Heightened Def Con from 0.000181212 to 0.000181212
Heightened Def Con from 0.000181212 to 0.000181213
Heightened Def Con from 0.000181213 to 0.000181213
Heightened Def Con from 0.000181213 to 0.000181213
Heightened Def Con from 0.000181213 to 0.000181216
Heightened Def Con from 0.000181216 to 0.000181218
Heightened Def Con from 0.000181219 to 0.000181222
Heightened Def Con from 0.000181222 to 0.000181222
Heightened Def Con from 0.000270787 to 0.000270787
Heightened Def Con from 0.000270787 to 0.000270787
Heightened Def Con from 0.000270787 to 0.000270787
Heightened Def Con from 0.000270787 to 0.000270787
Heightened Def Con from 0.000270787 to 0.000270787
Heightened Def Con from 0.000270787 to 0.000270787
Heightened Def Con from 0.000270788 to 0.000270788
Heightened Def Con from 0.000270788 to 0.000270788
Heightened Def Con from 0.000270788 to 0.000270788
Heightened Def Con from 0.000270788 to 0.000270788
Heightened Def Con from 0.000270788 to 0.000270788
Heightened Def Con from 0.000270788 ++to 0.000270788
Heightened Def Con from 0.000270788 to 0.000270788
Heightened Def Con from 0.000270788 to 0.000270788
Heightened Def Con from 0.000270788 to 0.00027079
Heightened Def Con from 0.000270791 to 0.000270791
Heightened Def Con from 0.000270791 to 0.000270792
Heightened Def Con from 0.000270792 to 0.000270792
Heightened Def Con from 0.000270792 to 0.000270792
Heightened Def Con from 0.000270792 to 0.000270792
Heightened Def Con from 0.000270792 to 0.000270792
Heightened Def Con from 0.000270792 to 0.000270792
Heightened Def Con from 0.000270792 to 0.000270792
Heightened Def Con from 0.000270792 to 0.000270793
Heightened Def Con from 0.000270793 to 0.000270795
Heightened Def Con from 0.000270795 to 0.000270797
Heightened Def Con from 0.000270797 to 0.0002708
Heightened Def Con from 0.0002708 to 0.0002708
Heightened Def Con from 0.0002708 to 0.000270802
Heightened Def Con from 0.000270802 to 0.000270802
Heightened Def Con from 0.000270802 to 0.000270803
Heightened Def Con from 0.000270803 to 0.000270803
Heightened Def Con from 0.000270803 to 0.000270804
Heightened Def Con from 0.000270804 to 0.000270805
Heightened Def Con from 0.000281098 +++++++++++++++++++to 0.000281098
Heightened Def Con from 0.000281098 to 0.0002811
Heightened Def Con from 0.000281146 to 0.000281146
Heightened Def Con from 0.000281178 to 0.000281179
Heightened Def Con from 0.000281179 to 0.000281182
Heightened Def Con from 0.000281188 to 0.00028119
Heightened Def Con from 0.00028119 to 0.000281193
Heightened Def Con from 0.000281193 to 0.000281196
Heightened Def Con from 0.000281196 to 0.000281199
Heightened Def Con from 0.000370789 to 0.000370789
Heightened Def Con from 0.000370789 to 0.000370789
Heightened Def Con from 0.000370789 to 0.000370789
Heightened Def Con from 0.000370789 to 0.000370789
Heightened Def Con from 0.000370789 to 0.000370789
Heightened Def Con from 0.000370789 to 0.00037079
Heightened Def Con from 0.00037079 to 0.00037079
Heightened Def Con from 0.00037079 to 0.00037079
Heightened Def Con from 0.00037079 to 0.00037079
Heightened Def Con from 0.00037079 to 0.00037079
Heightened Def Con from 0.00037079 to 0.000370791
Heightened Def Con from 0.000370791 to 0.000370791
Heightened Def Con from 0.000370791 to 0.000370791
Heightened Def Con from 0.000370791 to 0.000370791
Heightened Def Con from 0.000370791 to 0.000370791
Heightened Def Con from 0.000370791 to 0.000370791
Heightened Def Con from 0.000370791 to 0.000370791
Heightened Def Con from 0.000370791 to 0.000370792
Heightened Def Con from 0.000370792 to 0.000370792
Heightened Def Con from 0.000370792 to 0.000370794
Heightened Def Con from 0.000370794 to 0.000370794
Heightened Def Con from 0.000370794 to 0.000370794
Heightened Def Con from 0.000370794 to 0.000370794
Heightened Def Con from 0.000370794 to 0.000370796
Heightened Def Con from 0.000370796 to 0.000370796
Heightened Def Con from 0.000370796 to 0.000370797
Heightened Def Con from 0.000370797 to 0.000370797
Heightened Def Con from 0.000370797 to 0.000370797
Heightened Def Con from 0.000370797 to 0.000370797
Heightened Def Con from 0.000370797 to 0.000370797
Heightened Def Con from 0.000370797 to 0.000370797
Heightened Def Con from 0.000370797 to 0.000370797
Heightened Def Con from 0.000370797 to 0.000370797
Heightened Def Con from 0.000370797 to 0.000370797
Heightened Def Con from 0.000370797 +to 0.000370799
Heightened Def Con from 0.000370814 to 0.000370814
Heightened Def Con from 0.000370814 to 0.000370815
Heightened Def Con from 0.000370815 to 0.000370815
Heightened Def Con from 0.000370815 to 0.000370815
Heightened Def Con from 0.000370815 +to 0.000370815
Heightened Def Con from 0.000370815 to 0.000370816
Heightened Def Con from 0.000370816 to 0.000370816
Heightened Def Con from 0.000370816 to 0.000370816
Heightened Def Con from 0.000370816 to 0.000370817
Heightened Def Con from 0.000370817 to 0.000370817
Heightened Def Con from 0.000370817 to 0.00037082
Heightened Def Con from 0.000380991 to 0.000380991
Heightened Def Con from 0.000380991 to 0.000380991
Heightened Def Con from 0.000380991 to 0.000380992
Heightened Def Con from 0.000380992 to 0.000380994
Heightened Def Con from 0.000381124 to 0.000381124
Heightened Def Con from 0.000381124 to 0.000381124
Heightened Def Con from 0.000381124 to 0.000381125
Heightened Def Con from 0.000381125 to 0.000381125
Heightened Def Con from 0.000381125 to 0.000381125
Heightened Def Con from 0.000381125 to 0.000381125
Heightened Def Con from 0.000381125 to 0.000381125
Heightened Def Con from 0.000381125 to 0.000381126
Heightened Def Con from 0.000381126 to 0.000381126
Heightened Def Con from 0.000381126 to 0.000381128
Heightened Def Con from 0.000381128 to 0.000381128
Heightened Def Con from 0.000381128 to 0.000381128
Heightened Def Con from 0.000381128 to 0.000381128
Heightened Def Con from 0.000381128 to 0.000381129
Heightened Def Con from 0.000381161 +++to 0.000381162
Heightened Def Con from 0.000381162 to 0.000381162
Heightened Def Con from 0.000381162 to 0.000381164
Heightened Def Con from 0.000381164 to 0.000381164
Heightened Def Con from 0.00038118 to 0.00038118
Heightened Def Con from 0.00038118 to 0.00038118
Heightened Def Con from 0.00038118 to 0.000381181
Heightened Def Con from 0.000381181 +to 0.000381183
Heightened Def Con from 0.000381183 +to 0.000381185
Heightened Def Con from 0.000381185 to 0.000381188
Heightened Def Con from 0.000381188 to 0.000381188
Heightened Def Con from 0.000381188 to 0.000381188
Heightened Def Con from 0.000381188 +to 0.000381189
Heightened Def Con from 0.000381189 +to 0.00038119
Heightened Def Con from 0.00038119 to 0.000381193
Heightened Def Con from 0.000381193 to 0.000381196
Heightened Def Con from 0.000381213 to 0.000381213
Heightened Def Con from 0.000381213 to 0.000381214
Heightened Def Con from 0.000381214 to 0.000381217
Heightened Def Con from 0.000381217 to 0.000381218
Heightened Def Con from 0.000381218 to 0.000381218
Heightened Def Con from 0.000381218 to 0.000381219
Heightened Def Con from 0.000381219 +to 0.000381219
Heightened Def Con from 0.00038122 +to 0.00038122
Heightened Def Con from 0.00038122 to 0.00038122
Heightened Def Con from 0.00038122 to 0.000381221
Heightened Def Con from 0.000381221 to 0.000381224
Heightened Def Con from 0.000381225 to 0.000381226
Heightened Def Con from 0.000381226 +to 0.000381226
Heightened Def Con from 0.000381226 to 0.000381228
Heightened Def Con from 0.000381228 to 0.000381229
Heightened Def Con from 0.000381229 to 0.000381232
Heightened Def Con from 0.000381232 to 0.000381234
Heightened Def Con from 0.000381234 to 0.000381234
Heightened Def Con from 0.000381234 to 0.000381235
Heightened Def Con from 0.000381236 to 0.000381238
Heightened Def Con from 0.000381238 to 0.000381241
Heightened Def Con from 0.000381241 to 0.000381242
Heightened Def Con from 0.000381242 to 0.000381243
Heightened Def Con from 0.000381243 +to 0.000381246
Heightened Def Con from 0.000381286 to 0.000381286
Heightened Def Con from 0.000381286 to 0.000381286
Heightened Def Con from 0.000381286 to 0.000381289
Heightened Def Con from 0.000470785 to 0.000470785
Heightened Def Con from 0.000470785 to 0.000470785
Heightened Def Con from 0.000470785 to 0.000470785
Heightened Def Con from 0.000470785 to 0.000470786
Heightened Def Con from 0.000470786 to 0.000470788
Heightened Def Con from 0.000470788 to 0.000470789
Heightened Def Con from 0.000470789 to 0.000470789
Heightened Def Con from 0.000470789 to 0.00047079
Heightened Def Con from 0.00047079 to 0.00047079
Heightened Def Con from 0.00047079 to 0.00047079
Heightened Def Con from 0.00047079 to 0.00047079
Heightened Def Con from 0.00047079 to 0.00047079
Heightened Def Con from 0.00047079 to 0.00047079
Heightened Def Con from 0.00047079 to 0.00047079
Heightened Def Con from 0.00047079 to 0.000470791
Heightened Def Con from 0.000470791 +++to 0.000470793
Heightened Def Con from 0.000470793 to 0.000470793
Heightened Def Con from 0.000470793 to 0.000470794
Heightened Def Con from 0.000470794 +to 0.000470795
Heightened Def Con from 0.000470795 to 0.000470795
Heightened Def Con from 0.000470795 to 0.000470796
Heightened Def Con from 0.000470796 to 0.000470797
Heightened Def Con from 0.000470797 to 0.000470798
Heightened Def Con from 0.000470798 to 0.000470798
Heightened Def Con from 0.000470798 to 0.000470798
Heightened Def Con from 0.000470798 +to 0.000470799
Heightened Def Con from 0.000470799 to 0.000470799
Heightened Def Con from 0.000470799 to 0.000470799
Heightened Def Con from 0.000470799 to 0.000470799
Heightened Def Con from 0.000470799 to 0.000470799
Heightened Def Con from 0.000470799 to 0.000470799
Heightened Def Con from 0.000470799 to 0.000470799
Heightened Def Con from 0.000470799 to 0.000470799
Heightened Def Con from 0.000470799 to 0.0004708
Heightened Def Con from 0.0004708 to 0.000470801
Heightened Def Con from 0.00047081 to 0.00047081
Heightened Def Con from 0.00047081 to 0.000470811
Heightened Def Con from 0.000470811 to 0.000470812
Heightened Def Con from 0.000470812 to 0.000470812
Heightened Def Con from 0.000470813 to 0.000470813
Heightened Def Con from 0.000470813 to 0.000470816
Heightened Def Con from 0.000481159 +to 0.000481159
Heightened Def Con from 0.000481159 to 0.00048116
Heightened Def Con from 0.00048116 to 0.00048116
Heightened Def Con from 0.00048116 to 0.00048116
Heightened Def Con from 0.00048116 to 0.00048116
Heightened Def Con from 0.00048116 to 0.00048116
Heightened Def Con from 0.00048116 to 0.000481162
Heightened Def Con from 0.000481162 to 0.000481163
Heightened Def Con from 0.000481163 to 0.000481164
Heightened Def Con from 0.000481164 to 0.000481166
Heightened Def Con from 0.000481166 to 0.000481167
Heightened Def Con from 0.000481167 to 0.000481169
Heightened Def Con from 0.000481169 to 0.000481169
Heightened Def Con from 0.000481169 to 0.000481169
Heightened Def Con from 0.000481169 to 0.000481169
Heightened Def Con from 0.000481169 to 0.000481172
Heightened Def Con from 0.000481172 to 0.000481173
Heightened Def Con from 0.000481173 to 0.000481173
Heightened Def Con from 0.000481173 to 0.000481175
Heightened Def Con from 0.000481175 to 0.000481176
Heightened Def Con from 0.000481176 to 0.000481176
Heightened Def Con from 0.000481176 to 0.000481176
Heightened Def Con from 0.000481176 to 0.000481178
Heightened Def Con from 0.000481178 to 0.000481179
Heightened Def Con from 0.000481179 +to 0.000481179
Heightened Def Con from 0.000481179 to 0.00048118
Heightened Def Con from 0.00048118 to 0.00048118
Heightened Def Con from 0.00048118 to 0.000481182
Heightened Def Con from 0.000481182 to 0.000481182
Heightened Def Con from 0.000481182 to 0.000481183
Heightened Def Con from 0.000481184 to 0.000481187
Heightened Def Con from 0.000481187 to 0.000481187
Heightened Def Con from 0.000481187 to 0.000481188
Heightened Def Con from 0.000481188 to 0.000481189
Heightened Def Con from 0.000481189 to 0.000481189
Heightened Def Con from 0.000481189 to 0.000481189
Heightened Def Con from 0.000481189 to 0.00048119
Heightened Def Con from 0.00048119 to 0.000481192
Heightened Def Con from 0.000481192 to 0.000481195
Heightened Def Con from 0.000481195 to 0.000481196
Heightened Def Con from 0.000481196 +to 0.000481197
Heightened Def Con from 0.000481197 to 0.000481198
Heightened Def Con from 0.000481198 to 0.000481201
Heightened Def Con from 0.000481202 to 0.000481202
Heightened Def Con from 0.000481202 to 0.000481204
Heightened Def Con from 0.000481205 to 0.000481207
Heightened Def Con from 0.000481208 to 0.000481209
Heightened Def Con from 0.000481209 to 0.000481209
Heightened Def Con from 0.000481209 to 0.00048121
Heightened Def Con from 0.00048121 to 0.000481212
Heightened Def Con from 0.000481212 to 0.000481212
Heightened Def Con from 0.000481212 to 0.000481212
Heightened Def Con from 0.000481212 to 0.000481215
Heightened Def Con from 0.000481232 to 0.000481232
Heightened Def Con from 0.000481232 to 0.000481232
Heightened Def Con from 0.000481233 to 0.000481233
Heightened Def Con from 0.000481233 to 0.000481234
Heightened Def Con from 0.000481234 to 0.000481237
Heightened Def Con from 0.000481237 to 0.000481237
Heightened Def Con from 0.000481237 to 0.000481237
Heightened Def Con from 0.000481237 to 0.00048124
Heightened Def Con from 0.000481242 to 0.000481242
Heightened Def Con from 0.000481242 to 0.000481244
Heightened Def Con from 0.000481245 to 0.000481245
Heightened Def Con from 0.000481245 to 0.000481245
Heightened Def Con from 0.000481245 to 0.000481248
Heightened Def Con from 0.000481248 to 0.000481248
Heightened Def Con from 0.000481248 to 0.000481248
Heightened Def Con from 0.000481249 to 0.00048125
Heightened Def Con from 0.00048125 to 0.00048125
Heightened Def Con from 0.00048125 +to 0.000481253
Heightened Def Con from 0.000481253 to 0.000481256
Heightened Def Con from 0.000481273 to 0.000481273
Heightened Def Con from 0.000481273 +to 0.000481273
Heightened Def Con from 0.000481273 to 0.000481274
Heightened Def Con from 0.000481274 to 0.000481274
Heightened Def Con from 0.000481274 to 0.000481276
Heightened Def Con from 0.000481276 to 0.000481279
Heightened Def Con from 0.000481281 to 0.000481284
Heightened Def Con from 0.000570788 to 0.000570788
Heightened Def Con from 0.000570788 to 0.000570789
Heightened Def Con from 0.000570789 to 0.000570789
Heightened Def Con from 0.000570789 to 0.000570789
Heightened Def Con from 0.000570789 to 0.000570789
Heightened Def Con from 0.000570789 to 0.000570789
Heightened Def Con from 0.000570789 to 0.00057079
Heightened Def Con from 0.00057079 to 0.00057079
Heightened Def Con from 0.00057079 to 0.00057079
Heightened Def Con from 0.00057079 to 0.00057079
Heightened Def Con from 0.00057079 to 0.000570792
Heightened Def Con from 0.000570792 to 0.000570792
Heightened Def Con from 0.000570792 to 0.000570792
Heightened Def Con from 0.000570812 to 0.000570815
Heightened Def Con from 0.000570817 to 0.000570817
Heightened Def Con from 0.000570817 to 0.000570817
Heightened Def Con from 0.000570817 to 0.000570819
Heightened Def Con from 0.000570819 to 0.000570819
Heightened Def Con from 0.000570819 +to 0.000570819
Heightened Def Con from 0.000570819 to 0.000570821
Heightened Def Con from 0.000570821 +to 0.000570821
Heightened Def Con from 0.000570821 to 0.000570821
Heightened Def Con from 0.000570821 to 0.000570822
Heightened Def Con from 0.000570822 to 0.000570822
Heightened Def Con from 0.000570822 to 0.000570823
Heightened Def Con from 0.000570823 to 0.000570824
Heightened Def Con from 0.000570824 to 0.000570825
Heightened Def Con from 0.000570825 to 0.000570827
Heightened Def Con from 0.000570831 to 0.000570831
Heightened Def Con from 0.000570831 to 0.000570831
Heightened Def Con from 0.000580832 to 0.000580832
Heightened Def Con from 0.000580832 to 0.000580832
Heightened Def Con from 0.000580832 to 0.000580833
Heightened Def Con from 0.000580833 to 0.000580835
Heightened Def Con from 0.000580836 +to 0.000580836
Heightened Def Con from 0.000580837 to 0.000580839
Heightened Def Con from 0.000581105 +to 0.000581105
Heightened Def Con from 0.000581105 to 0.000581105
Heightened Def Con from 0.000581105 to 0.000581105
Heightened Def Con from 0.000581105 to 0.000581106
Heightened Def Con from 0.000581106 to 0.000581106
Heightened Def Con from 0.000581106 to 0.000581107
Heightened Def Con from 0.000581107 to 0.000581107
Heightened Def Con from 0.000581107 to 0.000581107
Heightened Def Con from 0.000581107 to 0.000581107
Heightened Def Con from 0.000581107 to 0.000581108
Heightened Def Con from 0.000581108 to 0.00058111
Heightened Def Con from 0.000581153 ++to 0.000581153
Heightened Def Con from 0.000581153 to 0.000581154
Heightened Def Con from 0.000581154 to 0.000581156
Heightened Def Con from 0.000581185 to 0.000581187
Heightened Def Con from 0.000581187 +to 0.00058119
Heightened Def Con from 0.00058119 to 0.000581191
Heightened Def Con from 0.000581191 to 0.000581192
Heightened Def Con from 0.000670789 to 0.00067079
Heightened Def Con from 0.00067079 to 0.00067079
Heightened Def Con from 0.00067079 to 0.00067079
Heightened Def Con from 0.00067079 to 0.00067079
Heightened Def Con from 0.00067079 to 0.00067079
Heightened Def Con from 0.00067079 to 0.00067079
Heightened Def Con from 0.00067079 to 0.00067079
Heightened Def Con from 0.00067079 to 0.00067079
Heightened Def Con from 0.000670791 to 0.000670791
Heightened Def Con from 0.000670791 to 0.000670791
Heightened Def Con from 0.000670791 to 0.000670791
Heightened Def Con from 0.000670791 to 0.000670791
Heightened Def Con from 0.000670791 ++to 0.000670791
Heightened Def Con from 0.000670791 to 0.000670791
Heightened Def Con from 0.000670791 to 0.000670791
Heightened Def Con from 0.000670791 to 0.000670791
Heightened Def Con from 0.000670793 +to 0.000670793
Heightened Def Con from 0.000670793 +to 0.000670795
Heightened Def Con from 0.000670795 to 0.000670797
Heightened Def Con from 0.000670797 +to 0.000670797
Heightened Def Con from 0.000670797 +to 0.000670797
Heightened Def Con from 0.000670798 to 0.000670799
Heightened Def Con from 0.000670799 to 0.000670799
Heightened Def Con from 0.000670799 to 0.000670799
Heightened Def Con from 0.000670799 to 0.000670799
Heightened Def Con from 0.000670799 to 0.000670801
Heightened Def Con from 0.000670801 to 0.000670802
Heightened Def Con from 0.000670802 to 0.000670802
Heightened Def Con from 0.000670802 to 0.000670803
Heightened Def Con from 0.000670803 to 0.000670803
Heightened Def Con from 0.000670803 to 0.000670804
Heightened Def Con from 0.000670804 to 0.000670804
Heightened Def Con from 0.000670804 to 0.000670806
Heightened Def Con from 0.000670806 +to 0.000670806
Heightened Def Con from 0.000670806 to 0.000670807
Heightened Def Con from 0.000670807 to 0.00067081
Heightened Def Con from 0.000670816 to 0.000670816
Heightened Def Con from 0.000670816 to 0.000670816
Heightened Def Con from 0.000670816 to 0.000670816
Heightened Def Con from 0.000670816 to 0.000670816
Heightened Def Con from 0.000670816 to 0.000670818
Heightened Def Con from 0.000670818 to 0.000670818
Heightened Def Con from 0.000670818 to 0.000670818
Heightened Def Con from 0.000670818 to 0.000670819
Heightened Def Con from 0.000670819 to 0.000670821
Heightened Def Con from 0.000670821 to 0.000670821
Heightened Def Con from 0.000670821 to 0.000670822
Heightened Def Con from 0.000670822 to 0.000670822
Heightened Def Con from 0.000670822 to 0.000670823
Heightened Def Con from 0.000670823 to 0.000670823
Heightened Def Con from 0.000670823 to 0.000670825
Heightened Def Con from 0.000670826 to 0.000670826
Heightened Def Con from 0.000670826 to 0.000670828
Heightened Def Con from 0.000670828 to 0.000670829
Heightened Def Con from 0.000680999 to 0.000681
Heightened Def Con from 0.000681 to 0.000681002
Heightened Def Con from 0.000681128 to 0.000681129
Heightened Def Con from 0.000681129 to 0.000681131
Heightened Def Con from 0.000681131 to 0.000681131
Heightened Def Con from 0.000681132 to 0.000681132
Heightened Def Con from 0.000681132 to 0.000681133
Heightened Def Con from 0.000681133 to 0.000681133
Heightened Def Con from 0.000681133 to 0.000681133
Heightened Def Con from 0.000681133 to 0.000681133
Heightened Def Con from 0.000681133 to 0.000681133
Heightened Def Con from 0.000681133 to 0.000681135
Heightened Def Con from 0.000681135 to 0.000681137
Heightened Def Con from 0.000681137 to 0.000681137
Heightened Def Con from 0.000681137 to 0.000681138
Heightened Def Con from 0.000681138 to 0.00068114
Heightened Def Con from 0.00068114 to 0.000681142
Heightened Def Con from 0.000681142 to 0.000681144
Heightened Def Con from 0.000681144 +to 0.000681144
Heightened Def Con from 0.000681144 to 0.000681144
Heightened Def Con from 0.000681144 to 0.000681145
Heightened Def Con from 0.000681145 to 0.000681145
Heightened Def Con from 0.000681145 to 0.000681146
Heightened Def Con from 0.000681146 to 0.000681146
Heightened Def Con from 0.000681146 to 0.000681146
Heightened Def Con from 0.000681146 to 0.000681146
Heightened Def Con from 0.000681146 to 0.000681146
Heightened Def Con from 0.000681146 to 0.000681146
Heightened Def Con from 0.000681146 +to 0.000681147
Heightened Def Con from 0.000681147 to 0.000681149
Heightened Def Con from 0.000681151 to 0.000681151
Heightened Def Con from 0.000681151 to 0.000681152
Heightened Def Con from 0.000681152 to 0.000681154
Heightened Def Con from 0.000681155 to 0.000681155
Heightened Def Con from 0.000681155 to 0.000681155
Heightened Def Con from 0.000681155 to 0.000681156
Heightened Def Con from 0.000681156 to 0.000681156
Heightened Def Con from 0.000681156 to 0.000681157
Heightened Def Con from 0.000681157 to 0.000681157
Heightened Def Con from 0.000681157 to 0.00068116
Heightened Def Con from 0.000681176 +to 0.000681176
Heightened Def Con from 0.000681176 to 0.000681176
Heightened Def Con from 0.000681176 to 0.000681176
Heightened Def Con from 0.000681176 to 0.000681176
Heightened Def Con from 0.000681176 to 0.000681178
Heightened Def Con from 0.000681179 to 0.000681179
Heightened Def Con from 0.000681179 to 0.000681179
Heightened Def Con from 0.000681179 to 0.000681179
Heightened Def Con from 0.000681179 to 0.00068118
Heightened Def Con from 0.00068118 to 0.00068118
Heightened Def Con from 0.00068118 to 0.000681182
Heightened Def Con from 0.000681182 to 0.000681182
Heightened Def Con from 0.000681182 to 0.000681182
Heightened Def Con from 0.000681182 to 0.000681183
Heightened Def Con from 0.000681183 to 0.000681184
Heightened Def Con from 0.000681184 to 0.000681185
Heightened Def Con from 0.000681185 to 0.000681185
Heightened Def Con from 0.000681185 to 0.000681185
Heightened Def Con from 0.000681185 to 0.000681187
Heightened Def Con from 0.000681187 to 0.000681187
Heightened Def Con from 0.000681187 to 0.000681187
Heightened Def Con from 0.000681187 to 0.000681187
Heightened Def Con from 0.000681187 to 0.000681187
Heightened Def Con from 0.000681187 to 0.000681187
Heightened Def Con from 0.000681187 to 0.000681187
Heightened Def Con from 0.000681187 to 0.000681187
Heightened Def Con from 0.000681187 to 0.000681187
Heightened Def Con from 0.000681187 to 0.000681188
Heightened Def Con from 0.000681188 to 0.000681188
Heightened Def Con from 0.000681188 +to 0.000681189
Heightened Def Con from 0.000681189 to 0.00068119
Heightened Def Con from 0.00068119 to 0.000681191
Heightened Def Con from 0.000681191 +to 0.000681191
Heightened Def Con from 0.000681191 to 0.000681191
Heightened Def Con from 0.000681191 to 0.000681192
Heightened Def Con from 0.000681192 to 0.000681193
Heightened Def Con from 0.000681193 to 0.000681193
Heightened Def Con from 0.000681193 to 0.000681193
Heightened Def Con from 0.000681193 to 0.000681195
Heightened Def Con from 0.000681195 to 0.000681195
Heightened Def Con from 0.000681195 to 0.000681195
Heightened Def Con from 0.000681195 to 0.000681197
Heightened Def Con from 0.000681197 to 0.0006812
Heightened Def Con from 0.0006812 to 0.0006812
Heightened Def Con from 0.0006812 to 0.000681202
Heightened Def Con from 0.000681202 to 0.000681203
Heightened Def Con from 0.000681203 to 0.000681206
Heightened Def Con from 0.000681216 to 0.000681216
Heightened Def Con from 0.000681216 to 0.000681218
Heightened Def Con from 0.000681218 to 0.000681219
Heightened Def Con from 0.000681219 to 0.00068122
Heightened Def Con from 0.00068122 to 0.00068122
Heightened Def Con from 0.00068122 to 0.000681221
Heightened Def Con from 0.000681221 to 0.000681221
Heightened Def Con from 0.000681221 to 0.000681222
Heightened Def Con from 0.000681223 to 0.000681224
Heightened Def Con from 0.000681224 to 0.000681227
Heightened Def Con from 0.000681227 to 0.000681227
Heightened Def Con from 0.000681227 to 0.00068123
Heightened Def Con from 0.00068124 to 0.00068124
Heightened Def Con from 0.00068124 to 0.00068124
Heightened Def Con from 0.00068124 to 0.000681241
Heightened Def Con from 0.000681241 to 0.000681243
Heightened Def Con from 0.000681243 to 0.000681243
Heightened Def Con from 0.000681243 to 0.000681243
Heightened Def Con from 0.000681243 to 0.000681246
Heightened Def Con from 0.000681263 to 0.000681264
Heightened Def Con from 0.000681264 to 0.000681264
Heightened Def Con from 0.000681264 to 0.000681264
Heightened Def Con from 0.000681264 to 0.000681266
Heightened Def Con from 0.000681266 to 0.000681267
Heightened Def Con from 0.000681267 to 0.00068127
Heightened Def Con from 0.000681271 to 0.000681272
Heightened Def Con from 0.000681272 to 0.000681272
Heightened Def Con from 0.000681272 to 0.000681275
Heightened Def Con from 0.000681292 to 0.000681293
Heightened Def Con from 0.000681293 to 0.000681294
Heightened Def Con from 0.000681294 to 0.000681295
Heightened Def Con from 0.000681295 to 0.000681295
Heightened Def Con from 0.000681295 to 0.000681297
Heightened Def Con from 0.000770786 to 0.000770788
Heightened Def Con from 0.000770788 to 0.000770788
Heightened Def Con from 0.000770788 to 0.000770788
Heightened Def Con from 0.000770788 +to 0.00077079
Heightened Def Con from 0.00077079 to 0.00077079
Heightened Def Con from 0.00077079 to 0.00077079
Heightened Def Con from 0.000770791 to 0.000770791
Heightened Def Con from 0.000770791 to 0.000770791
Heightened Def Con from 0.000770791 to 0.000770791
Heightened Def Con from 0.000770791 to 0.000770791
Heightened Def Con from 0.000770791 to 0.000770791
Heightened Def Con from 0.000770792 to 0.000770792
Heightened Def Con from 0.000770792 to 0.000770794
Heightened Def Con from 0.000770811 to 0.000770811
Heightened Def Con from 0.000770811 to 0.000770811
Heightened Def Con from 0.000770811 to 0.000770814
Heightened Def Con from 0.000770814 to 0.000770815
Heightened Def Con from 0.000770815 to 0.000770816
Heightened Def Con from 0.000770816 to 0.000770816
Heightened Def Con from 0.000770816 to 0.000770816
Heightened Def Con from 0.000770816 to 0.000770816
Heightened Def Con from 0.000770816 to 0.000770816
Heightened Def Con from 0.000770816 to 0.000770816
Heightened Def Con from 0.000770816 to 0.000770816
Heightened Def Con from 0.000770816 to 0.000770816
Heightened Def Con from 0.000770816 to 0.000770816
Heightened Def Con from 0.000770816 to 0.000770816
Heightened Def Con from 0.000770816 to 0.000770816
Heightened Def Con from 0.000770816 to 0.000770816
Heightened Def Con from 0.000770816 to 0.000770816
Heightened Def Con from 0.000770816 to 0.000770816
Heightened Def Con from 0.000770816 to 0.000770819
Heightened Def Con from 0.000770822 to 0.000770822
Heightened Def Con from 0.000770822 to 0.000770822
Heightened Def Con from 0.000770822 to 0.000770823
Heightened Def Con from 0.000770823 to 0.000770824
Heightened Def Con from 0.000770824 to 0.000770826
Heightened Def Con from 0.000770827 +to 0.000770828
Heightened Def Con from 0.000770828 to 0.000770828
Heightened Def Con from 0.000781029 to 0.00078103
Heightened Def Con from 0.00078103 to 0.000781032
Heightened Def Con from 0.000781032 to 0.000781034
Heightened Def Con from 0.000781034 to 0.000781036
Heightened Def Con from 0.000781158 to 0.000781158
Heightened Def Con from 0.000781158 to 0.000781158
Heightened Def Con from 0.000781158 to 0.000781158
Heightened Def Con from 0.000781158 to 0.000781159
Heightened Def Con from 0.000781159 to 0.000781161
Heightened Def Con from 0.000781161 to 0.000781162
Heightened Def Con from 0.000781178 ++++++++++++++++++++++++to 0.000781178
Heightened Def Con from 0.000781178 to 0.000781179
Heightened Def Con from 0.000781179 to 0.000781181
Heightened Def Con from 0.000781181 to 0.000781181
Heightened Def Con from 0.000781181 to 0.000781182
Heightened Def Con from 0.000781182 to 0.000781183
Heightened Def Con from 0.000781183 to 0.000781183
Heightened Def Con from 0.000781183 to 0.000781184
Heightened Def Con from 0.000781184 to 0.000781185
Heightened Def Con from 0.000781185 to 0.000781185
Heightened Def Con from 0.000781185 to 0.000781185
Heightened Def Con from 0.000781185 to 0.000781185
Heightened Def Con from 0.000781185 to 0.000781185
Heightened Def Con from 0.000781185 to 0.000781187
Heightened Def Con from 0.000781187 to 0.000781187
Heightened Def Con from 0.000781187 to 0.000781187
Heightened Def Con from 0.000781187 to 0.000781187
Heightened Def Con from 0.000781187 to 0.000781188
Heightened Def Con from 0.000781188 to 0.000781188
Heightened Def Con from 0.000781188 to 0.000781188
Heightened Def Con from 0.000781188 +to 0.000781188
Heightened Def Con from 0.000781191 to 0.000781191
Heightened Def Con from 0.000781191 to 0.000781191
Heightened Def Con from 0.000781191 to 0.000781191
Heightened Def Con from 0.000781191 to 0.000781194
Heightened Def Con from 0.000781196 to 0.000781197
Heightened Def Con from 0.000781197 to 0.000781199
Heightened Def Con from 0.000781199 to 0.000781199
Heightened Def Con from 0.000781199 to 0.000781202
Heightened Def Con from 0.00078122 to 0.00078122
Heightened Def Con from 0.00078122 to 0.000781223
Heightened Def Con from 0.000781223 +to 0.000781223
Heightened Def Con from 0.000781223 to 0.000781224
Heightened Def Con from 0.000870787 to 0.000870788
Heightened Def Con from 0.000870788 to 0.000870788
Heightened Def Con from 0.000870788 to 0.000870788
Heightened Def Con from 0.000870789 to 0.000870791
Heightened Def Con from 0.000870791 to 0.000870791
Heightened Def Con from 0.000870791 to 0.000870791
Heightened Def Con from 0.000870791 to 0.000870791
Heightened Def Con from 0.000870791 to 0.000870791
Heightened Def Con from 0.000870791 +to 0.000870792
Heightened Def Con from 0.000870792 to 0.000870793
Heightened Def Con from 0.000870793 to 0.000870796
Heightened Def Con from 0.000870797 to 0.0008708
Heightened Def Con from 0.0008708 to 0.000870801
Heightened Def Con from 0.000870801 to 0.000870802
Heightened Def Con from 0.000870802 to 0.000870802
Heightened Def Con from 0.000870802 to 0.000870802
Heightened Def Con from 0.000870802 to 0.000870802
Heightened Def Con from 0.000870802 to 0.000870803
Heightened Def Con from 0.000870803 to 0.000870804
Heightened Def Con from 0.000870804 to 0.000870804
Heightened Def Con from 0.000870804 to 0.000870805
Heightened Def Con from 0.000870805 to 0.000870805
Heightened Def Con from 0.000870805 to 0.000870807
Heightened Def Con from 0.000870807 to 0.000870808
Heightened Def Con from 0.000870808 to 0.000870808
Heightened Def Con from 0.000870808 to 0.000870808
Heightened Def Con from 0.000870808 to 0.000870808
Heightened Def Con from 0.000870808 to 0.00087081
Heightened Def Con from 0.00087081 to 0.000870812
Heightened Def Con from 0.000870812 to 0.000870814
Heightened Def Con from 0.000870814 to 0.000870814
Heightened Def Con from 0.000870814 to 0.000870814
Heightened Def Con from 0.000870814 to 0.000870815
Heightened Def Con from 0.000870815 to 0.000870817
Heightened Def Con from 0.000870817 to 0.000870817
Heightened Def Con from 0.000870818 to 0.000870818
Heightened Def Con from 0.000870818 to 0.000870818
Heightened Def Con from 0.000870818 to 0.000870818
Heightened Def Con from 0.000870818 to 0.000870818
Heightened Def Con from 0.000870818 to 0.00087082
Heightened Def Con from 0.00087082 +to 0.00087082
Heightened Def Con from 0.00087082 to 0.000870821
Heightened Def Con from 0.000870821 to 0.000870821
Heightened Def Con from 0.000881095 ++++++++++++++++++++++++++++to 0.000881098
Heightened Def Con from 0.000881195 to 0.000881197
Heightened Def Con from 0.000970788 +to 0.000970788
Heightened Def Con from 0.000970788 to 0.000970789
Heightened Def Con from 0.000970789 to 0.000970789
Heightened Def Con from 0.000970789 to 0.000970789
Heightened Def Con from 0.000970789 to 0.00097079
Heightened Def Con from 0.000970791 to 0.000970791
Heightened Def Con from 0.000970791 to 0.000970791
Heightened Def Con from 0.000970791 to 0.000970791
Heightened Def Con from 0.000970791 to 0.000970791
Heightened Def Con from 0.000970792 to 0.000970792
Heightened Def Con from 0.000970792 to 0.000970792
Heightened Def Con from 0.000970792 to 0.000970793
Heightened Def Con from 0.000970793 to 0.000970793
Heightened Def Con from 0.000970793 to 0.000970793
Heightened Def Con from 0.000970793 to 0.000970793
Heightened Def Con from 0.000970793 to 0.000970793
Heightened Def Con from 0.000970793 to 0.000970793
Heightened Def Con from 0.000970793 to 0.000970793
Heightened Def Con from 0.000970793 to 0.000970793
Heightened Def Con from 0.000970793 to 0.000970793
Heightened Def Con from 0.000970793 to 0.000970793
Heightened Def Con from 0.000970793 to 0.000970793
Heightened Def Con from 0.000970793 to 0.000970794
Heightened Def Con from 0.000970794 +to 0.000970794
Heightened Def Con from 0.000970794 +to 0.000970797
Heightened Def Con from 0.000970797 +to 0.000970799
Heightened Def Con from 0.000970799 to 0.0009708
Heightened Def Con from 0.0009708 to 0.000970801
Heightened Def Con from 0.000970801 to 0.000970801
Heightened Def Con from 0.000970801 to 0.000970802
Heightened Def Con from 0.00097081 to 0.00097081
Heightened Def Con from 0.00097081 to 0.00097081
Heightened Def Con from 0.00097081 to 0.00097081
Heightened Def Con from 0.00097081 to 0.00097081
Heightened Def Con from 0.00097081 to 0.00097081
Heightened Def Con from 0.00097081 to 0.00097081
Heightened Def Con from 0.00097081 to 0.000970811
Heightened Def Con from 0.000970811 to 0.000970814
Heightened Def Con from 0.000970814 to 0.000970814
Heightened Def Con from 0.000970814 to 0.000970816
Heightened Def Con from 0.000970816 to 0.000970817
Heightened Def Con from 0.000970817 to 0.000970818
Heightened Def Con from 0.000970818 to 0.000970818
Heightened Def Con from 0.000970818 to 0.000970818
Heightened Def Con from 0.000970818 to 0.000970819
Heightened Def Con from 0.000970819 to 0.000970821
Heightened Def Con from 0.000970821 to 0.000970821
Heightened Def Con from 0.000970821 to 0.000970822
Heightened Def Con from 0.000970822 to 0.000970822
Heightened Def Con from 0.000970822 to 0.000970822
Heightened Def Con from 0.000970822 to 0.000970822
Heightened Def Con from 0.000970822 to 0.000970824
Heightened Def Con from 0.000970824 to 0.000970825
Heightened Def Con from 0.000970825 to 0.000970825
Heightened Def Con from 0.000970825 to 0.000970825
Heightened Def Con from 0.000970825 to 0.000970826
Heightened Def Con from 0.000970826 to 0.000970826
Heightened Def Con from 0.000970826 +to 0.000970828
Heightened Def Con from 0.000970828 to 0.000970829
Heightened Def Con from 0.000970829 +to 0.000970829
Heightened Def Con from 0.000970829 to 0.000970831
Heightened Def Con from 0.000970831 to 0.000970832
Heightened Def Con from 0.000970832 to 0.000970832
Heightened Def Con from 0.000970833 to 0.000970833
Heightened Def Con from 0.000970833 to 0.000970833
Heightened Def Con from 0.000970833 to 0.000970833
Heightened Def Con from 0.000970833 to 0.000970835
Heightened Def Con from 0.000970835 to 0.000970836
Heightened Def Con from 0.000970836 to 0.000970838
Heightened Def Con from 0.000981181 to 0.000981181
Heightened Def Con from 0.000981181 to 0.000981183
Heightened Def Con from 0.000981183 to 0.000981184
Heightened Def Con from 0.000981184 to 0.000981184
Heightened Def Con from 0.000981184 to 0.000981184
Heightened Def Con from 0.000981184 to 0.000981184
Heightened Def Con from 0.000981184 to 0.000981185
Heightened Def Con from 0.000981185 to 0.000981185
Heightened Def Con from 0.000981185 to 0.000981185
Heightened Def Con from 0.000981185 to 0.000981185
Heightened Def Con from 0.000981185 to 0.000981185
Heightened Def Con from 0.000981185 to 0.000981185
Heightened Def Con from 0.000981185 to 0.000981187
Heightened Def Con from 0.000981187 to 0.000981187
Heightened Def Con from 0.000981187 to 0.000981187
Heightened Def Con from 0.000981187 to 0.000981188
Heightened Def Con from 0.000981188 to 0.000981188
Heightened Def Con from 0.000981188 to 0.000981188
Heightened Def Con from 0.000981188 to 0.00098119
Heightened Def Con from 0.00098119 to 0.00098119
Heightened Def Con from 0.00098119 to 0.000981191
Heightened Def Con from 0.000981191 to 0.000981191
Heightened Def Con from 0.000981191 to 0.000981192
Heightened Def Con from 0.000981193 to 0.000981193
Heightened Def Con from 0.000981193 to 0.000981193
Heightened Def Con from 0.000981193 to 0.000981193
Heightened Def Con from 0.000981193 to 0.000981196
Heightened Def Con from 0.000981196 to 0.000981197
Heightened Def Con from 0.000981197 to 0.000981199
Heightened Def Con from 0.000981199 to 0.0009812
Heightened Def Con from 0.0009812 to 0.000981202
Heightened Def Con from 0.000981202 to 0.000981203
Heightened Def Con from 0.000981203 to 0.000981203
Heightened Def Con from 0.000981203 to 0.000981206
Heightened Def Con from 0.000981206 +to 0.000981207
Heightened Def Con from 0.000981207 to 0.000981207
Heightened Def Con from 0.000981208 to 0.000981208
Heightened Def Con from 0.000981208 +to 0.000981208
Heightened Def Con from 0.000981208 to 0.000981208
Heightened Def Con from 0.000981208 to 0.00098121
Heightened Def Con from 0.00098121 +to 0.00098121
Heightened Def Con from 0.00098121 to 0.00098121
Heightened Def Con from 0.00098121 to 0.00098121
Heightened Def Con from 0.00107079 to 0.00107079
Heightened Def Con from 0.00107079 to 0.00107079
Heightened Def Con from 0.00107079 to 0.00107079
Heightened Def Con from 0.00107079 to 0.00107079
Heightened Def Con from 0.00107079 to 0.00107079
Heightened Def Con from 0.00107079 to 0.00107079
Heightened Def Con from 0.00107079 to 0.00107079
Heightened Def Con from 0.00107079 to 0.00107079
Heightened Def Con from 0.00107079 to 0.00107079
Heightened Def Con from 0.00107079 to 0.00107079
Heightened Def Con from 0.00107079 to 0.00107079
Heightened Def Con from 0.00107079 to 0.00107079
Heightened Def Con from 0.00107079 to 0.00107079
Heightened Def Con from 0.00107079 +to 0.00107079
Heightened Def Con from 0.00107079 to 0.00107079
Heightened Def Con from 0.00107079 to 0.00107079
Heightened Def Con from 0.00107079 to 0.00107079
Heightened Def Con from 0.00107079 to 0.00107079
Heightened Def Con from 0.00107079 to 0.00107079
Heightened Def Con from 0.00107079 to 0.00107079
Heightened Def Con from 0.00107079 to 0.00107079
Heightened Def Con from 0.00107079 to 0.00107079
Heightened Def Con from 0.00107079 to 0.00107079
Heightened Def Con from 0.00107079 +to 0.00107079
Heightened Def Con from 0.00107079 to 0.0010708
Heightened Def Con from 0.0010708 to 0.0010708
Heightened Def Con from 0.0010708 to 0.0010708
Heightened Def Con from 0.0010708 to 0.0010708
Heightened Def Con from 0.0010708 to 0.0010708
Heightened Def Con from 0.0010708 to 0.00107081
Heightened Def Con from 0.00107081 to 0.00107081
Heightened Def Con from 0.00107081 to 0.00107081
Heightened Def Con from 0.00107081 to 0.00107081
Heightened Def Con from 0.00107081 to 0.00107081
Heightened Def Con from 0.00107081 to 0.00107081
Heightened Def Con from 0.00107081 to 0.00107081
Heightened Def Con from 0.00107081 to 0.00107081
Heightened Def Con from 0.00107081 to 0.00107081
Heightened Def Con from 0.00107081 to 0.00107082
Heightened Def Con from 0.00107082 to 0.00107082
Heightened Def Con from 0.00107082 to 0.00107082
Heightened Def Con from 0.00107082 to 0.00107082
Heightened Def Con from 0.00107082 to 0.00107082
Heightened Def Con from 0.00107082 to 0.00107082
Heightened Def Con from 0.00107082 to 0.00107082
Heightened Def Con from 0.00107082 to 0.00107082
Heightened Def Con from 0.00107082 to 0.00107082
Heightened Def Con from 0.00107082 to 0.00107082
Heightened Def Con from 0.00107082 to 0.00107082
Heightened Def Con from 0.00107082 to 0.00107082
Heightened Def Con from 0.00107082 to 0.00107083
Heightened Def Con from 0.00107083 to 0.00107083
Heightened Def Con from 0.00107083 to 0.00107083
Heightened Def Con from 0.00107083 to 0.00107083
Heightened Def Con from 0.00107083 to 0.00107083
Heightened Def Con from 0.00107083 +to 0.00107083
Heightened Def Con from 0.00107083 to 0.00107083
Heightened Def Con from 0.00107083 to 0.00107083
Heightened Def Con from 0.00107083 to 0.00107083
Heightened Def Con from 0.00107083 to 0.00107083
Heightened Def Con from 0.00107083 to 0.00107083
Heightened Def Con from 0.00107083 to 0.00107083
Heightened Def Con from 0.00107083 to 0.00107083
Heightened Def Con from 0.00107083 to 0.00107083
Heightened Def Con from 0.00107083 to 0.00107083
Heightened Def Con from 0.00107083 to 0.00107083
Heightened Def Con from 0.00107083 to 0.00107083
Heightened Def Con from 0.00107083 +to 0.00107084
Heightened Def Con from 0.00107084 to 0.00107084
Heightened Def Con from 0.00107084 to 0.00107084
Heightened Def Con from 0.00107084 to 0.00107084
Heightened Def Con from 0.00107084 to 0.00107084
Heightened Def Con from 0.00107084 to 0.00107084
Heightened Def Con from 0.00107084 to 0.00107084
Heightened Def Con from 0.00107084 to 0.00107084
Heightened Def Con from 0.00107084 to 0.00107084
Heightened Def Con from 0.00107084 to 0.00107084
Heightened Def Con from 0.00107084 to 0.00107084
Heightened Def Con from 0.00107084 to 0.00107084
Heightened Def Con from 0.00107084 to 0.00107084
Heightened Def Con from 0.00107084 to 0.00107084
Heightened Def Con from 0.00107084 to 0.00107084
Heightened Def Con from 0.00107084 to 0.00107084
Heightened Def Con from 0.00107084 to 0.00107085
Heightened Def Con from 0.00107085 to 0.00107085
Heightened Def Con from 0.00107085 to 0.00107085
Heightened Def Con from 0.00107085 to 0.00107085
Heightened Def Con from 0.00107085 to 0.00107085
Heightened Def Con from 0.00107085 to 0.00107085
Heightened Def Con from 0.00107085 to 0.00107085
Heightened Def Con from 0.00107085 to 0.00107085
Heightened Def Con from 0.00108074 to 0.00108074
Heightened Def Con from 0.00108074 to 0.00108074
Heightened Def Con from 0.00108074 to 0.00108075
Heightened Def Con from 0.00108075 to 0.00108075
Heightened Def Con from 0.00108075 to 0.00108075
Heightened Def Con from 0.00108075 to 0.00108075
Heightened Def Con from 0.00108075 to 0.00108075
Heightened Def Con from 0.00108103 to 0.00108103
Heightened Def Con from 0.00108103 to 0.00108103
Heightened Def Con from 0.00108103 to 0.00108104
Heightened Def Con from 0.00108104 to 0.00108104
Heightened Def Con from 0.00108104 to 0.00108104
Heightened Def Con from 0.00108104 to 0.00108104
Heightened Def Con from 0.00108104 to 0.00108104
Heightened Def Con from 0.00108104 to 0.00108104
Heightened Def Con from 0.00108104 to 0.00108104
Heightened Def Con from 0.00108104 to 0.00108104
Heightened Def Con from 0.00108104 to 0.00108104
Heightened Def Con from 0.00108104 to 0.00108104
Heightened Def Con from 0.00108104 to 0.00108104
Heightened Def Con from 0.00108116 to 0.00108116
Heightened Def Con from 0.00108116 to 0.00108116
Heightened Def Con from 0.00108116 to 0.00108117
Heightened Def Con from 0.00108117 +to 0.00108117
Heightened Def Con from 0.00108117 to 0.00108117
Heightened Def Con from 0.00108117 to 0.00108117
Heightened Def Con from 0.00108117 to 0.00108117
Heightened Def Con from 0.00108117 to 0.00108117
Heightened Def Con from 0.00108117 to 0.00108118
Heightened Def Con from 0.00108118 to 0.00108118
Heightened Def Con from 0.00108119 to 0.00108119
Heightened Def Con from 0.00108119 to 0.00108119
Heightened Def Con from 0.00108119 to 0.00108119
Heightened Def Con from 0.00108119 to 0.00108119
Heightened Def Con from 0.00108119 to 0.00108119
Heightened Def Con from 0.00108119 to 0.00108119
Heightened Def Con from 0.00108119 to 0.00108119
Heightened Def Con from 0.00108119 to 0.00108119
Heightened Def Con from 0.00108119 to 0.00108119
Heightened Def Con from 0.00108119 +to 0.00108119
Heightened Def Con from 0.00108119 to 0.00108119
Heightened Def Con from 0.00108119 to 0.00108119
Heightened Def Con from 0.00108119 to 0.00108119
Heightened Def Con from 0.00108119 to 0.00108119
Heightened Def Con from 0.00108119 to 0.0010812
Heightened Def Con from 0.0010812 to 0.0010812
Heightened Def Con from 0.0010812 to 0.0010812
Heightened Def Con from 0.0010812 to 0.0010812
Heightened Def Con from 0.0010812 to 0.0010812
Heightened Def Con from 0.0010812 to 0.0010812
Heightened Def Con from 0.0010812 to 0.0010812
Heightened Def Con from 0.0010812 to 0.0010812
Heightened Def Con from 0.0010812 to 0.0010812
Heightened Def Con from 0.0010812 to 0.00108121
Heightened Def Con from 0.00108121 to 0.00108121
Heightened Def Con from 0.00108121 to 0.00108121
Heightened Def Con from 0.00108121 to 0.00108121
Heightened Def Con from 0.00117078 to 0.00117078
Heightened Def Con from 0.00117078 to 0.00117078
Heightened Def Con from 0.00117078 to 0.00117079
Heightened Def Con from 0.00117079 to 0.00117079
Heightened Def Con from 0.00117079 to 0.00117079
Heightened Def Con from 0.00117079 to 0.00117079
Heightened Def Con from 0.00117079 to 0.00117079
Heightened Def Con from 0.00117079 to 0.00117079
Heightened Def Con from 0.00117079 to 0.00117079
Heightened Def Con from 0.00117079 to 0.00117079
Heightened Def Con from 0.00117079 +to 0.00117079
Heightened Def Con from 0.00117079 to 0.00117079
Heightened Def Con from 0.00117079 to 0.00117079
Heightened Def Con from 0.00117079 to 0.00117079
Heightened Def Con from 0.00117079 +to 0.00117079
Heightened Def Con from 0.00117079 to 0.00117079
Heightened Def Con from 0.00117079 to 0.00117079
Heightened Def Con from 0.00117079 to 0.00117079
Heightened Def Con from 0.00117079 to 0.00117079
Heightened Def Con from 0.00117079 to 0.00117079
Heightened Def Con from 0.00117079 to 0.00117079
Heightened Def Con from 0.00117079 to 0.00117079
Heightened Def Con from 0.00117079 to 0.00117079
Heightened Def Con from 0.00117079 to 0.00117079
Heightened Def Con from 0.00117079 to 0.00117079
Heightened Def Con from 0.00117079 to 0.00117079
Heightened Def Con from 0.00117079 to 0.00117079
Heightened Def Con from 0.00117079 to 0.00117079
Heightened Def Con from 0.00117079 to 0.00117079
Heightened Def Con from 0.00117079 to 0.00117079
Heightened Def Con from 0.00117079 to 0.00117079
Heightened Def Con from 0.00117079 to 0.00117079
Heightened Def Con from 0.00117079 to 0.00117079
Heightened Def Con from 0.0011708 to 0.0011708
Heightened Def Con from 0.0011708 to 0.0011708
Heightened Def Con from 0.0011708 to 0.0011708
Heightened Def Con from 0.0011708 to 0.0011708
Heightened Def Con from 0.0011708 +to 0.0011708
Heightened Def Con from 0.0011708 to 0.0011708
Heightened Def Con from 0.0011708 to 0.0011708
Heightened Def Con from 0.0011708 to 0.0011708
Heightened Def Con from 0.0011708 to 0.0011708
Heightened Def Con from 0.0011708 to 0.0011708
Heightened Def Con from 0.0011708 to 0.0011708
Heightened Def Con from 0.0011708 to 0.0011708
Heightened Def Con from 0.0011708 to 0.0011708
Heightened Def Con from 0.0011708 to 0.0011708
Heightened Def Con from 0.0011708 to 0.0011708
Heightened Def Con from 0.0011708 to 0.0011708
Heightened Def Con from 0.00117081 to 0.00117081
Heightened Def Con from 0.00117081 to 0.00117081
Heightened Def Con from 0.00117081 to 0.00117081
Heightened Def Con from 0.00117081 +to 0.00117081
Heightened Def Con from 0.00118094 to 0.00118094
Heightened Def Con from 0.00118094 +to 0.00118094
Heightened Def Con from 0.00118094 to 0.00118094
Heightened Def Con from 0.00118094 to 0.00118094
Heightened Def Con from 0.00118094 to 0.00118094
Heightened Def Con from 0.00118094 to 0.00118094
Heightened Def Con from 0.00118094 to 0.00118094
Heightened Def Con from 0.00118094 to 0.00118094
Heightened Def Con from 0.00118094 to 0.00118095
Heightened Def Con from 0.00118095 to 0.00118095
Heightened Def Con from 0.00118095 to 0.00118095
Heightened Def Con from 0.00118095 to 0.00118095
Heightened Def Con from 0.00118095 to 0.00118095
Heightened Def Con from 0.00118095 to 0.00118095
Heightened Def Con from 0.00118095 to 0.00118095
Heightened Def Con from 0.00118095 to 0.00118095
Heightened Def Con from 0.00118095 to 0.00118095
Heightened Def Con from 0.00118095 to 0.00118095
Heightened Def Con from 0.00118108 to 0.00118108
Heightened Def Con from 0.00118108 to 0.00118108
Heightened Def Con from 0.00118108 to 0.00118108
Heightened Def Con from 0.00118114 +++++++++++++++++++++++++++to 0.00118115
Heightened Def Con from 0.00127079 to 0.00127079
Heightened Def Con from 0.00127079 to 0.00127079
Heightened Def Con from 0.00127079 to 0.00127079
Heightened Def Con from 0.00127079 to 0.00127079
Heightened Def Con from 0.00127079 to 0.00127079
Heightened Def Con from 0.00127079 to 0.0012708
Heightened Def Con from 0.0012708 to 0.0012708
Heightened Def Con from 0.0012708 +to 0.0012708
Heightened Def Con from 0.0012708 to 0.0012708
Heightened Def Con from 0.0012708 to 0.0012708
Heightened Def Con from 0.0012708 to 0.0012708
Heightened Def Con from 0.0012708 to 0.00127081
Heightened Def Con from 0.00127081 to 0.00127081
Heightened Def Con from 0.00127081 to 0.00127081
Heightened Def Con from 0.00127081 to 0.00127081
Heightened Def Con from 0.00127081 to 0.00127081
Heightened Def Con from 0.00127081 to 0.00127081
Heightened Def Con from 0.00127081 to 0.00127081
Heightened Def Con from 0.00127081 to 0.00127081
Heightened Def Con from 0.00127081 to 0.00127081
Heightened Def Con from 0.00127081 to 0.00127081
Heightened Def Con from 0.00127081 to 0.00127081
Heightened Def Con from 0.00127081 to 0.00127081
Heightened Def Con from 0.00127081 to 0.00127081
Heightened Def Con from 0.00127081 to 0.00127081
Heightened Def Con from 0.00127081 to 0.00127082
Heightened Def Con from 0.00127082 to 0.00127082
Heightened Def Con from 0.00127082 to 0.00127082
Heightened Def Con from 0.00127082 to 0.00127082
Heightened Def Con from 0.00127082 to 0.00127082
Heightened Def Con from 0.00127082 to 0.00127082
Heightened Def Con from 0.00127082 to 0.00127082
Heightened Def Con from 0.00127082 to 0.00127082
Heightened Def Con from 0.00127082 to 0.00127082
Heightened Def Con from 0.00127082 to 0.00127082
Heightened Def Con from 0.00127082 to 0.00127082
Heightened Def Con from 0.00127082 to 0.00127082
Heightened Def Con from 0.00127082 to 0.00127082
Heightened Def Con from 0.00127082 to 0.00127082
Heightened Def Con from 0.00127082 to 0.00127082
Heightened Def Con from 0.00127082 to 0.00127082
Heightened Def Con from 0.00127082 to 0.00127082
Heightened Def Con from 0.00127082 to 0.00127082
Heightened Def Con from 0.00127082 +to 0.00127082
Heightened Def Con from 0.00127082 to 0.00127082
Heightened Def Con from 0.00127082 to 0.00127082
Heightened Def Con from 0.00127082 to 0.00127082
Heightened Def Con from 0.00127082 to 0.00127082
Heightened Def Con from 0.00127082 to 0.00127082
Heightened Def Con from 0.00127082 to 0.00127083
Heightened Def Con from 0.00127083 to 0.00127083
Heightened Def Con from 0.00127083 to 0.00127083
Heightened Def Con from 0.00127083 to 0.00127083
Heightened Def Con from 0.00127083 to 0.00127083
Heightened Def Con from 0.00127083 to 0.00127083
Heightened Def Con from 0.00127083 to 0.00127083
Heightened Def Con from 0.00127083 to 0.00127083
Heightened Def Con from 0.00127083 to 0.00127083
Heightened Def Con from 0.00127083 to 0.00127083
Heightened Def Con from 0.00127083 to 0.00127084
Heightened Def Con from 0.00127084 to 0.00127084
Heightened Def Con from 0.00127084 to 0.00127084
Heightened Def Con from 0.00127084 to 0.00127084
Heightened Def Con from 0.00127084 to 0.00127084
Heightened Def Con from 0.00127084 to 0.00127084
Heightened Def Con from 0.00127084 to 0.00127084
Heightened Def Con from 0.00127084 to 0.00127084
Heightened Def Con from 0.00127084 to 0.00127084
Heightened Def Con from 0.00127084 +to 0.00127085
Heightened Def Con from 0.00127085 to 0.00127085
Heightened Def Con from 0.00128101 to 0.00128101
Heightened Def Con from 0.00128101 to 0.00128101
Heightened Def Con from 0.00128101 to 0.00128101
Heightened Def Con from 0.00128101 to 0.00128101
Heightened Def Con from 0.00128101 to 0.00128101
Heightened Def Con from 0.00128101 to 0.00128101
Heightened Def Con from 0.00128101 to 0.00128102
Heightened Def Con from 0.00128114 to 0.00128114
Heightened Def Con from 0.00128114 to 0.00128114
Heightened Def Con from 0.00128114 to 0.00128114
Heightened Def Con from 0.00128114 to 0.00128114
Heightened Def Con from 0.00128114 to 0.00128114
Heightened Def Con from 0.00128114 +to 0.00128114
Heightened Def Con from 0.00128114 to 0.00128115
Heightened Def Con from 0.00128115 to 0.00128115
Heightened Def Con from 0.00128115 to 0.00128115
Heightened Def Con from 0.00128115 +to 0.00128115
Heightened Def Con from 0.00128115 to 0.00128115
Heightened Def Con from 0.00128115 to 0.00128115
Heightened Def Con from 0.00128115 to 0.00128115
Heightened Def Con from 0.00128115 to 0.00128115
Heightened Def Con from 0.00128115 to 0.00128115
Heightened Def Con from 0.00128115 to 0.00128115
Heightened Def Con from 0.00128115 to 0.00128115
Heightened Def Con from 0.00128115 to 0.00128116
Heightened Def Con from 0.00128116 to 0.00128116
Heightened Def Con from 0.00128116 to 0.00128116
Heightened Def Con from 0.00128116 to 0.00128116
Heightened Def Con from 0.00128116 to 0.00128116
Heightened Def Con from 0.00128116 to 0.00128116
Heightened Def Con from 0.00128116 to 0.00128116
Heightened Def Con from 0.00128116 to 0.00128116
Heightened Def Con from 0.00128116 to 0.00128116
Heightened Def Con from 0.00128116 to 0.00128116
Heightened Def Con from 0.00128116 to 0.00128117
Heightened Def Con from 0.00128118 to 0.00128118
Heightened Def Con from 0.00128118 +to 0.00128118
Heightened Def Con from 0.00128118 to 0.00128118
Heightened Def Con from 0.00128118 to 0.00128118
Heightened Def Con from 0.00128119 to 0.00128119
Heightened Def Con from 0.00128119 to 0.00128119
Heightened Def Con from 0.00128119 to 0.00128119
Heightened Def Con from 0.00128119 to 0.00128119
Heightened Def Con from 0.00128119 to 0.00128119
Heightened Def Con from 0.00128119 to 0.00128119
Heightened Def Con from 0.00128119 to 0.00128119
Heightened Def Con from 0.00128119 to 0.00128119
Heightened Def Con from 0.00128119 to 0.00128119
Heightened Def Con from 0.00128119 to 0.00128119
Heightened Def Con from 0.00128119 to 0.00128119
Heightened Def Con from 0.00128119 to 0.00128119
Heightened Def Con from 0.00128119 to 0.00128119
Heightened Def Con from 0.00128119 to 0.00128119
Heightened Def Con from 0.00128119 to 0.00128119
Heightened Def Con from 0.00128119 to 0.00128119
Heightened Def Con from 0.00128119 to 0.0012812
Heightened Def Con from 0.0012812 +to 0.0012812
Heightened Def Con from 0.0012812 to 0.0012812
Heightened Def Con from 0.0012812 to 0.0012812
Heightened Def Con from 0.0012812 to 0.0012812
Heightened Def Con from 0.0012812 to 0.0012812
Heightened Def Con from 0.0012812 to 0.0012812
Heightened Def Con from 0.0012812 to 0.0012812
Heightened Def Con from 0.0012812 to 0.0012812
Heightened Def Con from 0.0012812 to 0.00128121
Heightened Def Con from 0.00128121 to 0.00128121
Heightened Def Con from 0.00128121 to 0.00128121
Heightened Def Con from 0.00128123 to 0.00128123
Heightened Def Con from 0.00128123 +to 0.00128123
Heightened Def Con from 0.00128123 to 0.00128123
Heightened Def Con from 0.00128124 to 0.00128124
Heightened Def Con from 0.00128124 to 0.00128124
Heightened Def Con from 0.00128124 to 0.00128124
Heightened Def Con from 0.00128124 to 0.00128124
Heightened Def Con from 0.00128124 to 0.00128125
Heightened Def Con from 0.00128125 +to 0.00128125
Heightened Def Con from 0.00137079 to 0.00137079
Heightened Def Con from 0.00137079 to 0.00137079
Heightened Def Con from 0.00137079 to 0.00137079
Heightened Def Con from 0.00137079 +to 0.00137079
Heightened Def Con from 0.00137079 to 0.00137079
Heightened Def Con from 0.00137079 to 0.00137079
Heightened Def Con from 0.00137079 to 0.00137079
Heightened Def Con from 0.00137079 to 0.00137079
Heightened Def Con from 0.00137079 to 0.00137079
Heightened Def Con from 0.00137079 to 0.00137079
Heightened Def Con from 0.00137079 to 0.00137079
Heightened Def Con from 0.00137079 to 0.00137079
Heightened Def Con from 0.00137079 to 0.00137079
Heightened Def Con from 0.00137079 to 0.0013708
Heightened Def Con from 0.0013708 to 0.0013708
Heightened Def Con from 0.0013708 ++to 0.0013708
Heightened Def Con from 0.0013708 to 0.0013708
Heightened Def Con from 0.0013708 +to 0.0013708
Heightened Def Con from 0.0013708 to 0.0013708
Heightened Def Con from 0.0013708 to 0.0013708
Heightened Def Con from 0.0013708 to 0.0013708
Heightened Def Con from 0.0013708 to 0.0013708
Heightened Def Con from 0.0013708 to 0.0013708
Heightened Def Con from 0.0013708 to 0.0013708
Heightened Def Con from 0.00137082 to 0.00137082
Heightened Def Con from 0.00137082 to 0.00137082
Heightened Def Con from 0.00137082 +to 0.00137082
Heightened Def Con from 0.00137082 +to 0.00137082
Heightened Def Con from 0.00137082 to 0.00137082
Heightened Def Con from 0.0013811 to 0.0013811
Heightened Def Con from 0.0013811 to 0.0013811
Heightened Def Con from 0.0013811 to 0.0013811
Heightened Def Con from 0.0013811 to 0.0013811
Heightened Def Con from 0.0013811 to 0.00138111
Heightened Def Con from 0.00138111 to 0.00138111
Heightened Def Con from 0.00138111 to 0.00138111
Heightened Def Con from 0.00138111 to 0.00138111
Heightened Def Con from 0.00138111 to 0.00138111
Heightened Def Con from 0.00138111 to 0.00138111
Heightened Def Con from 0.00138111 to 0.00138111
Heightened Def Con from 0.00138111 to 0.00138111
Heightened Def Con from 0.00138111 to 0.00138111
Heightened Def Con from 0.00138111 to 0.00138112
Heightened Def Con from 0.00138112 to 0.00138112
Heightened Def Con from 0.00138112 to 0.00138112
Heightened Def Con from 0.00138112 to 0.00138112
Heightened Def Con from 0.00138112 to 0.00138112
Heightened Def Con from 0.00138112 to 0.00138112
Heightened Def Con from 0.00138112 to 0.00138112
Heightened Def Con from 0.00138112 to 0.00138112
Heightened Def Con from 0.00138112 to 0.00138112
Heightened Def Con from 0.00138112 to 0.00138112
Heightened Def Con from 0.00138112 to 0.00138112
Heightened Def Con from 0.00138112 to 0.00138112
Heightened Def Con from 0.00138112 to 0.00138112
Heightened Def Con from 0.00138116 +++++++++++++++++++++++to 0.00138116
Heightened Def Con from 0.00138119 to 0.00138119
Heightened Def Con from 0.00147079 to 0.00147079
Heightened Def Con from 0.00147079 to 0.00147079
Heightened Def Con from 0.00147079 to 0.00147079
Heightened Def Con from 0.00147079 +to 0.00147079
Heightened Def Con from 0.00147079 to 0.00147079
Heightened Def Con from 0.00147079 to 0.00147079
Heightened Def Con from 0.00147079 to 0.00147079
Heightened Def Con from 0.00147079 to 0.00147079
Heightened Def Con from 0.00147079 to 0.00147079
Heightened Def Con from 0.00147079 to 0.00147079
Heightened Def Con from 0.00147079 to 0.0014708
Heightened Def Con from 0.0014708 to 0.0014708
Heightened Def Con from 0.0014708 to 0.0014708
Heightened Def Con from 0.0014708 to 0.0014708
Heightened Def Con from 0.0014708 to 0.0014708
Heightened Def Con from 0.0014708 to 0.0014708
Heightened Def Con from 0.0014708 to 0.0014708
Heightened Def Con from 0.0014708 to 0.0014708
Heightened Def Con from 0.0014708 +to 0.0014708
Heightened Def Con from 0.0014708 to 0.0014708
Heightened Def Con from 0.00147081 to 0.00147081
Heightened Def Con from 0.00147081 to 0.00147081
Heightened Def Con from 0.00147081 to 0.00147081
Heightened Def Con from 0.00147081 +to 0.00147082
Heightened Def Con from 0.00147082 to 0.00147082
Heightened Def Con from 0.00147082 to 0.00147082
Heightened Def Con from 0.00147082 to 0.00147082
Heightened Def Con from 0.00147082 to 0.00147082
Heightened Def Con from 0.00147082 to 0.00147082
Heightened Def Con from 0.00147082 to 0.00147082
Heightened Def Con from 0.00147082 to 0.00147082
Heightened Def Con from 0.00147082 to 0.00147082
Heightened Def Con from 0.00147082 to 0.00147082
Heightened Def Con from 0.00147082 to 0.00147082
Heightened Def Con from 0.00147082 to 0.00147082
Heightened Def Con from 0.00147082 to 0.00147082
Heightened Def Con from 0.00147082 to 0.00147082
Heightened Def Con from 0.00147082 to 0.00147082
Heightened Def Con from 0.00147082 to 0.00147083
Heightened Def Con from 0.001481 +to 0.001481
Heightened Def Con from 0.001481 to 0.001481
Heightened Def Con from 0.00148112 to 0.00148113
Heightened Def Con from 0.00148113 to 0.00148113
Heightened Def Con from 0.00148113 +to 0.00148113
Heightened Def Con from 0.00148113 to 0.00148113
Heightened Def Con from 0.00148113 to 0.00148113
Heightened Def Con from 0.00148113 to 0.00148113
Heightened Def Con from 0.00148113 to 0.00148113
Heightened Def Con from 0.00148113 to 0.00148113
Heightened Def Con from 0.00148113 to 0.00148113
Heightened Def Con from 0.00148113 to 0.00148113
Heightened Def Con from 0.00148113 +to 0.00148113
Heightened Def Con from 0.00148113 to 0.00148113
Heightened Def Con from 0.00148113 to 0.00148113
Heightened Def Con from 0.00148113 to 0.00148113
Heightened Def Con from 0.00148113 to 0.00148113
Heightened Def Con from 0.00148113 to 0.00148113
Heightened Def Con from 0.00148113 to 0.00148113
Heightened Def Con from 0.00148113 to 0.00148113
Heightened Def Con from 0.00148113 to 0.00148113
Heightened Def Con from 0.00148113 to 0.00148113
Heightened Def Con from 0.00148113 to 0.00148114
Heightened Def Con from 0.00148114 +to 0.00148114
Heightened Def Con from 0.00148114 to 0.00148114
Heightened Def Con from 0.00148114 to 0.00148114
Heightened Def Con from 0.00148114 to 0.00148114
Heightened Def Con from 0.00148114 to 0.00148114
Heightened Def Con from 0.00148114 to 0.00148114
Heightened Def Con from 0.00148114 to 0.00148114
Heightened Def Con from 0.00148114 to 0.00148114
Heightened Def Con from 0.00148114 to 0.00148114
Heightened Def Con from 0.00148114 to 0.00148114
Heightened Def Con from 0.00148114 to 0.00148114
Heightened Def Con from 0.00148114 to 0.00148114
Heightened Def Con from 0.00148114 to 0.00148114
Heightened Def Con from 0.00148114 to 0.00148114
Heightened Def Con from 0.00148114 to 0.00148114
Heightened Def Con from 0.00148114 to 0.00148115
Heightened Def Con from 0.00148118 to 0.00148118
Heightened Def Con from 0.00148118 to 0.00148118
Heightened Def Con from 0.00148118 +to 0.00148118
Heightened Def Con from 0.00148118 to 0.00148118
Heightened Def Con from 0.00148118 to 0.00148118
Heightened Def Con from 0.00148118 to 0.00148119
Heightened Def Con from 0.00148119 to 0.00148119
Heightened Def Con from 0.00148119 to 0.00148119
Heightened Def Con from 0.00148119 to 0.00148119
Heightened Def Con from 0.00148119 to 0.00148119
Heightened Def Con from 0.00148119 to 0.00148119
Heightened Def Con from 0.00148119 to 0.00148119
Heightened Def Con from 0.00148119 to 0.00148119
Heightened Def Con from 0.00148119 to 0.00148119
Heightened Def Con from 0.00148119 to 0.00148119
Heightened Def Con from 0.00148119 to 0.00148119
Heightened Def Con from 0.00148119 to 0.00148119
Heightened Def Con from 0.00148119 to 0.0014812
Heightened Def Con from 0.0014812 to 0.0014812
Heightened Def Con from 0.0014812 to 0.0014812
Heightened Def Con from 0.0014812 to 0.0014812
Heightened Def Con from 0.0014812 to 0.0014812
Heightened Def Con from 0.0014812 to 0.0014812
Heightened Def Con from 0.0014812 to 0.0014812
Heightened Def Con from 0.0014812 to 0.0014812
Heightened Def Con from 0.0014812 to 0.0014812
Heightened Def Con from 0.0014812 +to 0.0014812
Heightened Def Con from 0.0014812 to 0.0014812
Heightened Def Con from 0.0014812 to 0.0014812
Heightened Def Con from 0.0014812 to 0.0014812
Heightened Def Con from 0.0014812 to 0.0014812
Heightened Def Con from 0.0014812 to 0.0014812
Heightened Def Con from 0.0014812 to 0.0014812
Heightened Def Con from 0.0014812 to 0.0014812
Heightened Def Con from 0.0014812 to 0.0014812
Heightened Def Con from 0.0014812 to 0.0014812
Heightened Def Con from 0.0014812 +to 0.0014812
Heightened Def Con from 0.0014812 to 0.00148121
Heightened Def Con from 0.00148121 to 0.00148121
Heightened Def Con from 0.00157079 to 0.00157079
Heightened Def Con from 0.00157079 to 0.00157079
Heightened Def Con from 0.00157079 to 0.00157079
Heightened Def Con from 0.00157079 to 0.00157079
Heightened Def Con from 0.00157079 to 0.00157079
Heightened Def Con from 0.00157079 to 0.00157079
Heightened Def Con from 0.00157079 to 0.00157079
Heightened Def Con from 0.00157079 to 0.00157079
Heightened Def Con from 0.00157079 to 0.00157079
Heightened Def Con from 0.00157079 to 0.00157079
Heightened Def Con from 0.00157079 to 0.00157079
Heightened Def Con from 0.00157079 to 0.00157079
Heightened Def Con from 0.00157079 to 0.00157079
Heightened Def Con from 0.00157079 to 0.00157079
Heightened Def Con from 0.00157079 +to 0.00157079
Heightened Def Con from 0.00157079 to 0.00157079
Heightened Def Con from 0.00157079 to 0.00157079
Heightened Def Con from 0.00157079 to 0.00157079
Heightened Def Con from 0.00157079 +to 0.0015708
Heightened Def Con from 0.0015708 to 0.0015708
Heightened Def Con from 0.0015708 to 0.0015708
Heightened Def Con from 0.0015708 to 0.0015708
Heightened Def Con from 0.0015708 +to 0.0015708
Heightened Def Con from 0.0015708 to 0.0015708
Heightened Def Con from 0.0015708 to 0.0015708
Heightened Def Con from 0.0015708 to 0.0015708
Heightened Def Con from 0.0015708 to 0.0015708
Heightened Def Con from 0.0015708 to 0.0015708
Heightened Def Con from 0.0015708 to 0.0015708
Heightened Def Con from 0.0015708 to 0.0015708
Heightened Def Con from 0.0015708 to 0.0015708
Heightened Def Con from 0.0015708 to 0.0015708
Heightened Def Con from 0.0015708 to 0.0015708
Heightened Def Con from 0.0015708 to 0.0015708
Heightened Def Con from 0.0015708 to 0.0015708
Heightened Def Con from 0.0015708 to 0.0015708
Heightened Def Con from 0.0015708 to 0.0015708
Heightened Def Con from 0.0015708 to 0.0015708
Heightened Def Con from 0.0015708 to 0.0015708
Heightened Def Con from 0.0015708 to 0.0015708
Heightened Def Con from 0.0015708 to 0.0015708
Heightened Def Con from 0.0015708 to 0.0015708
Heightened Def Con from 0.0015708 to 0.0015708
Heightened Def Con from 0.0015708 to 0.0015708
Heightened Def Con from 0.0015708 to 0.00157081
Heightened Def Con from 0.00157081 to 0.00157081
Heightened Def Con from 0.00157081 to 0.00157081
Heightened Def Con from 0.00157081 to 0.00157081
Heightened Def Con from 0.00157081 to 0.00157081
Heightened Def Con from 0.00157081 to 0.00157081
Heightened Def Con from 0.00157081 to 0.00157081
Heightened Def Con from 0.00157081 to 0.00157081
Heightened Def Con from 0.00157081 to 0.00157081
Heightened Def Con from 0.00157081 +to 0.00157081
Heightened Def Con from 0.00157081 to 0.00157081
Heightened Def Con from 0.00157081 to 0.00157081
Heightened Def Con from 0.00157081 to 0.00157082
Heightened Def Con from 0.00157082 to 0.00157082
Heightened Def Con from 0.00158105 ++to 0.00158105
Heightened Def Con from 0.00158105 to 0.00158105
Heightened Def Con from 0.00158105 to 0.00158106
Heightened Def Con from 0.00158106 to 0.00158106
Heightened Def Con from 0.00158106 to 0.00158106
Heightened Def Con from 0.00158106 to 0.00158106
Heightened Def Con from 0.00158106 to 0.00158106
Heightened Def Con from 0.00158106 to 0.00158106
Heightened Def Con from 0.00158119 to 0.00158119
Heightened Def Con from 0.00158119 to 0.00158119
Heightened Def Con from 0.00158119 to 0.00158119
Heightened Def Con from 0.00158119 to 0.00158119
Heightened Def Con from 0.00158119 to 0.00158119
Heightened Def Con from 0.00158119 to 0.00158119
Heightened Def Con from 0.00158119 to 0.00158119
Heightened Def Con from 0.00158119 +to 0.00158119
Heightened Def Con from 0.00158119 to 0.00158119
Heightened Def Con from 0.00158119 to 0.00158119
Heightened Def Con from 0.00158119 to 0.00158119
Heightened Def Con from 0.00158119 to 0.0015812
Heightened Def Con from 0.00158121 to 0.00158121
Heightened Def Con from 0.00158121 to 0.00158121
Heightened Def Con from 0.00158121 to 0.00158121
Heightened Def Con from 0.00158121 to 0.00158121
Heightened Def Con from 0.00158121 to 0.00158121
Heightened Def Con from 0.00158121 to 0.00158121
Heightened Def Con from 0.00158121 to 0.00158121
Heightened Def Con from 0.00158121 to 0.00158121
Heightened Def Con from 0.00158121 to 0.00158121
Heightened Def Con from 0.00158123 to 0.00158123
Heightened Def Con from 0.00158123 to 0.00158123
Heightened Def Con from 0.00158123 to 0.00158124
Heightened Def Con from 0.00158124 to 0.00158124
Heightened Def Con from 0.00158124 to 0.00158124
Heightened Def Con from 0.00158124 to 0.00158124
Heightened Def Con from 0.00158124 to 0.00158124
Heightened Def Con from 0.00158124 to 0.00158124
Heightened Def Con from 0.00158124 to 0.00158124
Heightened Def Con from 0.00158124 to 0.00158124
Heightened Def Con from 0.00158124 to 0.00158124
Heightened Def Con from 0.00158124 to 0.00158124
[...]
Heightened Def Con from 0.00737083 +to 0.00737083
Heightened Def Con from 0.00737083 +to 0.00737083
Heightened Def Con from 0.00737083 to 0.00737083
Heightened Def Con from 0.00737083 +to 0.00737083
Heightened Def Con from 0.00737083 to 0.00737083
Heightened Def Con from 0.00737083 to 0.00737083
Heightened Def Con from 0.00737083 +to 0.00737084
Heightened Def Con from 0.00737084 to 0.00737084
Heightened Def Con from 0.00737084 to 0.00737084
Heightened Def Con from 0.00737084 to 0.00737084
Heightened Def Con from 0.00737084 to 0.00737084
Heightened Def Con from 0.00737084 to 0.00737084
Heightened Def Con from 0.00737084 to 0.00737084
Heightened Def Con from 0.00737084 to 0.00737084
Heightened Def Con from 0.00737084 to 0.00737084
Heightened Def Con from 0.00737084 to 0.00737084
Heightened Def Con from 0.00737084 to 0.00737084
Heightened Def Con from 0.00737084 to 0.00737084
Heightened Def Con from 0.00737084 to 0.00737084
Heightened Def Con from 0.00737084 to 0.00737084
Heightened Def Con from 0.00737084 to 0.00737084
Heightened Def Con from 0.00737084 to 0.00737085
Heightened Def Con from 0.00737085 to 0.00737085
Heightened Def Con from 0.00737085 to 0.00737085
Heightened Def Con from 0.00737085 to 0.00737085
Heightened Def Con from 0.00737085 to 0.00737085
Heightened Def Con from 0.00738114 to 0.00738114
Heightened Def Con from 0.00738114 to 0.00738114
Heightened Def Con from 0.00738115 to 0.00738115
Heightened Def Con from 0.00738115 to 0.00738115
Heightened Def Con from 0.00738115 to 0.00738115
Heightened Def Con from 0.00738115 to 0.00738115
Heightened Def Con from 0.00738115 to 0.00738115
Heightened Def Con from 0.00738115 to 0.00738115
Heightened Def Con from 0.00738115 to 0.00738115
Heightened Def Con from 0.00738118 to 0.00738118
Heightened Def Con from 0.00738118 to 0.00738119
Heightened Def Con from 0.00738119 to 0.00738119
Heightened Def Con from 0.00738119 +to 0.00738119
Heightened Def Con from 0.00738119 to 0.00738119
Heightened Def Con from 0.00738119 to 0.00738119
Heightened Def Con from 0.00738119 to 0.00738119
Heightened Def Con from 0.00738119 to 0.00738119
Heightened Def Con from 0.00738119 to 0.00738119
Heightened Def Con from 0.00738119 to 0.00738119
Heightened Def Con from 0.00738119 to 0.00738119
Heightened Def Con from 0.00738119 to 0.00738119
Heightened Def Con from 0.00738119 to 0.00738119
Heightened Def Con from 0.00738119 to 0.00738119
Heightened Def Con from 0.00738119 to 0.0073812
Heightened Def Con from 0.0073812 to 0.0073812
Heightened Def Con from 0.00747079 to 0.00747079
Heightened Def Con from 0.00747079 to 0.00747079
Heightened Def Con from 0.00747079 to 0.00747079
Heightened Def Con from 0.00747079 to 0.00747079
Heightened Def Con from 0.00747079 to 0.0074708
Heightened Def Con from 0.0074708 to 0.0074708
Heightened Def Con from 0.0074708 to 0.0074708
Heightened Def Con from 0.0074708 to 0.0074708
Heightened Def Con from 0.0074708 to 0.0074708
Heightened Def Con from 0.0074708 to 0.0074708
Heightened Def Con from 0.0074708 to 0.0074708
Heightened Def Con from 0.0074708 to 0.0074708
Heightened Def Con from 0.0074708 to 0.0074708
Heightened Def Con from 0.0074708 to 0.0074708
Heightened Def Con from 0.0074708 to 0.0074708
Heightened Def Con from 0.0074708 to 0.0074708
Heightened Def Con from 0.0074708 to 0.0074708
Heightened Def Con from 0.0074708 to 0.0074708
Heightened Def Con from 0.0074708 to 0.0074708
Heightened Def Con from 0.0074708 to 0.0074708
Heightened Def Con from 0.0074708 to 0.0074708
Heightened Def Con from 0.0074708 to 0.00747081
Heightened Def Con from 0.00747081 to 0.00747081
Heightened Def Con from 0.00747081 to 0.00747081
Heightened Def Con from 0.00747081 to 0.00747081
Heightened Def Con from 0.00747081 to 0.00747081
Heightened Def Con from 0.00747081 to 0.00747081
Heightened Def Con from 0.00747081 to 0.00747081
Heightened Def Con from 0.00747081 to 0.00747081
Heightened Def Con from 0.00747081 to 0.00747081
Heightened Def Con from 0.00747081 to 0.00747081
Heightened Def Con from 0.00747081 to 0.00747081
Heightened Def Con from 0.00747081 to 0.00747081
Heightened Def Con from 0.00747081 to 0.00747081
Heightened Def Con from 0.00747081 to 0.00747081
Heightened Def Con from 0.00747081 to 0.00747082
Heightened Def Con from 0.00747082 to 0.00747082
Heightened Def Con from 0.00747082 to 0.00747082
Heightened Def Con from 0.00747082 to 0.00747082
Heightened Def Con from 0.00747082 to 0.00747082
Heightened Def Con from 0.00747082 to 0.00747082
Heightened Def Con from 0.00747082 to 0.00747083
Heightened Def Con from 0.00747083 to 0.00747083
Heightened Def Con from 0.00747083 to 0.00747083
Heightened Def Con from 0.00747083 to 0.00747083
Heightened Def Con from 0.00747083 to 0.00747083
Heightened Def Con from 0.00747083 to 0.00747083
Heightened Def Con from 0.00747083 to 0.00747083
Heightened Def Con from 0.00747083 to 0.00747083
Heightened Def Con from 0.00747083 to 0.00747083
Heightened Def Con from 0.00747083 to 0.00747084
Heightened Def Con from 0.00747084 to 0.00747084
Heightened Def Con from 0.00747084 to 0.00747084
Heightened Def Con from 0.00747084 to 0.00747084
Heightened Def Con from 0.00747084 to 0.00747084
Heightened Def Con from 0.00747084 to 0.00747084
Heightened Def Con from 0.00747084 +to 0.00747084
Heightened Def Con from 0.00747084 to 0.00747084
Heightened Def Con from 0.00747084 to 0.00747084
Heightened Def Con from 0.00747084 to 0.00747084
Heightened Def Con from 0.00747084 to 0.00747084
Heightened Def Con from 0.00747084 +to 0.00747084
Heightened Def Con from 0.00747084 to 0.00747084
Heightened Def Con from 0.00747084 to 0.00747085
Heightened Def Con from 0.00747085 to 0.00747085
Heightened Def Con from 0.00747085 to 0.00747085
Heightened Def Con from 0.00747085 to 0.00747085
Heightened Def Con from 0.00747085 to 0.00747085
Heightened Def Con from 0.00747085 to 0.00747085
Heightened Def Con from 0.00747085 to 0.00747085
Heightened Def Con from 0.00747085 to 0.00747085
Heightened Def Con from 0.00747085 to 0.00747085
Heightened Def Con from 0.00747085 to 0.00747085
Heightened Def Con from 0.00747085 to 0.00747085
Heightened Def Con from 0.00747085 to 0.00747085
Heightened Def Con from 0.00747085 to 0.00747085
Heightened Def Con from 0.00747085 to 0.00747085
Heightened Def Con from 0.00747085 to 0.00747085
Heightened Def Con from 0.00747085 +to 0.00747085
Heightened Def Con from 0.00747085 to 0.00747085
Heightened Def Con from 0.00747085 to 0.00747085
Heightened Def Con from 0.00747085 to 0.00747085
Heightened Def Con from 0.00747085 to 0.00747085
Heightened Def Con from 0.00747085 to 0.00747085
Heightened Def Con from 0.00747085 to 0.00747085
Heightened Def Con from 0.00747085 to 0.00747085
Heightened Def Con from 0.00747086 to 0.00747086
Heightened Def Con from 0.00747086 to 0.00747086
Heightened Def Con from 0.00747086 to 0.00747086
Heightened Def Con from 0.00747086 to 0.00747086
Heightened Def Con from 0.00747086 to 0.00747086
Heightened Def Con from 0.00747086 to 0.00747086
Heightened Def Con from 0.00747086 +to 0.00747086
Heightened Def Con from 0.00747086 to 0.00747086
Heightened Def Con from 0.00747086 to 0.00747086
Heightened Def Con from 0.00747086 to 0.00747086
Heightened Def Con from 0.00747086 to 0.00747086
Heightened Def Con from 0.00747086 to 0.00747086
Heightened Def Con from 0.00747086 to 0.00747086
Heightened Def Con from 0.00747086 to 0.00747086
Heightened Def Con from 0.00747086 to 0.00747086
Heightened Def Con from 0.00747086 to 0.00747086
Heightened Def Con from 0.00747086 to 0.00747086
Heightened Def Con from 0.00747086 to 0.00747086
Heightened Def Con from 0.00747087 to 0.00747087
Heightened Def Con from 0.00747087 to 0.00747087
Heightened Def Con from 0.00747087 to 0.00747087
Heightened Def Con from 0.00747087 to 0.00747087
Heightened Def Con from 0.00747087 to 0.00747087
Heightened Def Con from 0.00747087 to 0.00747087
Heightened Def Con from 0.00747087 to 0.00747087
Heightened Def Con from 0.00747087 to 0.00747087
Heightened Def Con from 0.00747087 to 0.00747087
Heightened Def Con from 0.00747087 to 0.00747087
Heightened Def Con from 0.00747087 ++to 0.00747087
Heightened Def Con from 0.00747087 to 0.00747087
Heightened Def Con from 0.00747087 to 0.00747087
Heightened Def Con from 0.00747087 to 0.00747087
Heightened Def Con from 0.00747087 to 0.00747087
Heightened Def Con from 0.00747087 to 0.00747087
Heightened Def Con from 0.00747087 to 0.00747087
Heightened Def Con from 0.00747087 to 0.00747087
Heightened Def Con from 0.00747087 to 0.00747087
Heightened Def Con from 0.00747087 to 0.00747087
Heightened Def Con from 0.00747087 to 0.00747087
Heightened Def Con from 0.00747087 to 0.00747087
Heightened Def Con from 0.00747087 to 0.00747087
Heightened Def Con from 0.00747087 to 0.00747087
Heightened Def Con from 0.00747087 to 0.00747087
Heightened Def Con from 0.00747087 to 0.00747087
Heightened Def Con from 0.00747087 to 0.00747088
Heightened Def Con from 0.00747088 to 0.00747088
Heightened Def Con from 0.00747088 to 0.00747088
Heightened Def Con from 0.00747088 to 0.00747088
Heightened Def Con from 0.00747088 to 0.00747088
Heightened Def Con from 0.00747088 to 0.00747088
Heightened Def Con from 0.00747088 to 0.00747088
Heightened Def Con from 0.00747088 to 0.00747088
Heightened Def Con from 0.00747088 to 0.00747088
Heightened Def Con from 0.0074809 to 0.0074809
Heightened Def Con from 0.00748091 +to 0.00748091
Heightened Def Con from 0.00748091 to 0.00748091
Heightened Def Con from 0.00748091 to 0.00748091
Heightened Def Con from 0.00748091 to 0.00748091
Heightened Def Con from 0.00748091 to 0.00748091
Heightened Def Con from 0.00748109 to 0.00748109
Heightened Def Con from 0.00748109 to 0.00748109
Heightened Def Con from 0.00748109 to 0.00748109
Heightened Def Con from 0.00748114 +++++++++++++++++++++++++++to 0.00748115
Heightened Def Con from 0.00757079 to 0.00757079
Heightened Def Con from 0.00757079 to 0.00757079
Heightened Def Con from 0.00757079 to 0.00757079
Heightened Def Con from 0.00757079 to 0.00757079
Heightened Def Con from 0.00757079 to 0.00757079
Heightened Def Con from 0.00757079 to 0.00757079
Heightened Def Con from 0.0075708 to 0.0075708
Heightened Def Con from 0.0075708 to 0.0075708
Heightened Def Con from 0.0075708 to 0.0075708
Heightened Def Con from 0.0075708 to 0.0075708
Heightened Def Con from 0.0075708 to 0.0075708
Heightened Def Con from 0.00757081 to 0.00757081
Heightened Def Con from 0.00757081 to 0.00757081
Heightened Def Con from 0.00757081 to 0.00757081
Heightened Def Con from 0.00757081 to 0.00757082
Heightened Def Con from 0.00757082 +to 0.00757082
Heightened Def Con from 0.00757082 +to 0.00757082
Heightened Def Con from 0.00757082 to 0.00757082
Heightened Def Con from 0.00757082 to 0.00757082
Heightened Def Con from 0.00757082 to 0.00757082
Heightened Def Con from 0.00757082 to 0.00757082
Heightened Def Con from 0.00758102 +to 0.00758102
Heightened Def Con from 0.00758102 to 0.00758102
Heightened Def Con from 0.00758115 to 0.00758115
Heightened Def Con from 0.00758115 to 0.00758115
Heightened Def Con from 0.00758115 to 0.00758115
Heightened Def Con from 0.00758115 to 0.00758115
Heightened Def Con from 0.00758115 to 0.00758115
Heightened Def Con from 0.00758115 to 0.00758115
Heightened Def Con from 0.00758115 to 0.00758115
Heightened Def Con from 0.00758116 to 0.00758116
Heightened Def Con from 0.00758116 to 0.00758116
Heightened Def Con from 0.00758116 to 0.00758116
Heightened Def Con from 0.00758116 to 0.00758116
Heightened Def Con from 0.00758116 to 0.00758116
Heightened Def Con from 0.00758116 to 0.00758116
Heightened Def Con from 0.00758116 to 0.00758116
Heightened Def Con from 0.00758116 to 0.00758117
Heightened Def Con from 0.00758117 to 0.00758117
Heightened Def Con from 0.00758117 to 0.00758117
Heightened Def Con from 0.00758117 to 0.00758117
Heightened Def Con from 0.00758117 to 0.00758117
Heightened Def Con from 0.00758117 to 0.00758117
Heightened Def Con from 0.00758117 to 0.00758118
Heightened Def Con from 0.00758118 to 0.00758118
Heightened Def Con from 0.00758118 +to 0.00758118
Heightened Def Con from 0.00758118 to 0.00758118
Heightened Def Con from 0.00758119 to 0.00758119
Heightened Def Con from 0.00758119 to 0.00758119
Heightened Def Con from 0.00758119 to 0.00758119
Heightened Def Con from 0.00758119 to 0.00758119
Heightened Def Con from 0.00758119 to 0.00758119
Heightened Def Con from 0.00758119 to 0.00758119
Heightened Def Con from 0.00758119 to 0.00758119
Heightened Def Con from 0.00758119 to 0.00758119
Heightened Def Con from 0.00758119 to 0.00758119
Heightened Def Con from 0.00758119 to 0.00758119
Heightened Def Con from 0.00758121 to 0.00758121
Heightened Def Con from 0.00758121 +to 0.00758121
Heightened Def Con from 0.00758121 to 0.00758121
Heightened Def Con from 0.00758121 to 0.00758122
Heightened Def Con from 0.00758122 to 0.00758122
Heightened Def Con from 0.00758124 to 0.00758124
Heightened Def Con from 0.00758124 to 0.00758124
Heightened Def Con from 0.00758124 to 0.00758124
Heightened Def Con from 0.00758125 to 0.00758125
Heightened Def Con from 0.00758125 to 0.00758125
Heightened Def Con from 0.00758125 to 0.00758125
Heightened Def Con from 0.00758125 to 0.00758125
Heightened Def Con from 0.00758125 to 0.00758125
Heightened Def Con from 0.00758127 to 0.00758127
Heightened Def Con from 0.00758127 to 0.00758127
Heightened Def Con from 0.00758127 to 0.00758127
Heightened Def Con from 0.00758127 to 0.00758127
Heightened Def Con from 0.00758127 to 0.00758127
Heightened Def Con from 0.00758127 to 0.00758127
Heightened Def Con from 0.00767079 to 0.00767079
Heightened Def Con from 0.00767079 to 0.00767079
Heightened Def Con from 0.00767079 +to 0.00767079
Heightened Def Con from 0.00767079 to 0.00767079
Heightened Def Con from 0.00767079 to 0.00767079
Heightened Def Con from 0.00767079 to 0.00767079
Heightened Def Con from 0.00767079 to 0.00767079
Heightened Def Con from 0.00767079 to 0.00767079
Heightened Def Con from 0.00767079 +to 0.00767079
Heightened Def Con from 0.00767079 to 0.00767079
Heightened Def Con from 0.00767079 to 0.00767079
Heightened Def Con from 0.00767079 to 0.00767079
Heightened Def Con from 0.00767079 to 0.00767079
Heightened Def Con from 0.00767079 to 0.00767079
Heightened Def Con from 0.00767079 to 0.00767079
Heightened Def Con from 0.00767079 to 0.00767079
Heightened Def Con from 0.00767079 to 0.0076708
Heightened Def Con from 0.0076708 to 0.0076708
Heightened Def Con from 0.0076708 to 0.0076708
Heightened Def Con from 0.0076708 to 0.0076708
Heightened Def Con from 0.0076708 to 0.0076708
Heightened Def Con from 0.0076708 to 0.0076708
Heightened Def Con from 0.0076708 to 0.0076708
Heightened Def Con from 0.0076708 to 0.0076708
Heightened Def Con from 0.0076708 to 0.0076708
Heightened Def Con from 0.0076708 to 0.0076708
Heightened Def Con from 0.0076708 to 0.0076708
Heightened Def Con from 0.0076708 to 0.00767081
Heightened Def Con from 0.00767081 to 0.00767081
Heightened Def Con from 0.00767081 to 0.00767081
Heightened Def Con from 0.00767081 to 0.00767081
Heightened Def Con from 0.00767081 to 0.00767081
Heightened Def Con from 0.00767081 to 0.00767081
Heightened Def Con from 0.00767081 to 0.00767081
Heightened Def Con from 0.00767081 to 0.00767081
Heightened Def Con from 0.00767081 to 0.00767081
Heightened Def Con from 0.00767081 to 0.00767081
Heightened Def Con from 0.00767081 to 0.00767081
Heightened Def Con from 0.00767081 to 0.00767081
Heightened Def Con from 0.00767081 to 0.00767081
Heightened Def Con from 0.00767081 to 0.00767081
Heightened Def Con from 0.00767081 to 0.00767081
Heightened Def Con from 0.00767081 to 0.00767081
Heightened Def Con from 0.00767081 to 0.00767081
Heightened Def Con from 0.00767081 to 0.00767081
Heightened Def Con from 0.00767081 to 0.00767081
Heightened Def Con from 0.00767081 +++to 0.00767081
Heightened Def Con from 0.00767081 to 0.00767081
Heightened Def Con from 0.00767081 to 0.00767081
Heightened Def Con from 0.00767081 to 0.00767081
Heightened Def Con from 0.00767081 to 0.00767081
Heightened Def Con from 0.00767081 to 0.00767081
Heightened Def Con from 0.00767081 to 0.00767082
Heightened Def Con from 0.00767082 to 0.00767082
Heightened Def Con from 0.00767082 to 0.00767082
Heightened Def Con from 0.00767082 to 0.00767082
Heightened Def Con from 0.00767082 +to 0.00767082
Heightened Def Con from 0.00767082 to 0.00767082
Heightened Def Con from 0.00767082 to 0.00767082
Heightened Def Con from 0.00767082 to 0.00767082
Heightened Def Con from 0.00767082 to 0.00767082
Heightened Def Con from 0.00768086 to 0.00768086
Heightened Def Con from 0.00768087 to 0.00768087
Heightened Def Con from 0.00768087 to 0.00768087
Heightened Def Con from 0.00768087 to 0.00768087
Heightened Def Con from 0.00768087 to 0.00768087
Heightened Def Con from 0.00768118 +to 0.00768118
Heightened Def Con from 0.00768118 to 0.00768118
Heightened Def Con from 0.00768119 to 0.00768119
Heightened Def Con from 0.00768119 to 0.00768119
Heightened Def Con from 0.00768119 to 0.00768119
Heightened Def Con from 0.00768119 to 0.00768119
Heightened Def Con from 0.00768119 to 0.00768119
Heightened Def Con from 0.00768119 to 0.00768119
Heightened Def Con from 0.00768119 to 0.00768119
Heightened Def Con from 0.00768119 to 0.00768119
Heightened Def Con from 0.00768119 to 0.0076812
Heightened Def Con from 0.0076812 to 0.0076812
Heightened Def Con from 0.0076812 to 0.0076812
Heightened Def Con from 0.0076812 to 0.0076812
Heightened Def Con from 0.0076812 to 0.0076812
Heightened Def Con from 0.00777079 to 0.00777079
Heightened Def Con from 0.00777079 to 0.00777079
Heightened Def Con from 0.00777079 +to 0.00777079
Heightened Def Con from 0.00777079 to 0.00777079
Heightened Def Con from 0.00777079 to 0.00777079
Heightened Def Con from 0.00777079 to 0.00777079
Heightened Def Con from 0.00777079 to 0.0077708
Heightened Def Con from 0.0077708 to 0.0077708
Heightened Def Con from 0.0077708 to 0.0077708
Heightened Def Con from 0.0077708 to 0.0077708
Heightened Def Con from 0.0077708 to 0.0077708
Heightened Def Con from 0.0077708 to 0.0077708
Heightened Def Con from 0.0077708 to 0.0077708
Heightened Def Con from 0.0077708 to 0.0077708
Heightened Def Con from 0.0077708 to 0.0077708
Heightened Def Con from 0.0077708 to 0.0077708
Heightened Def Con from 0.0077708 to 0.0077708
Heightened Def Con from 0.0077708 +to 0.0077708
Heightened Def Con from 0.0077708 +to 0.0077708
Heightened Def Con from 0.00777081 to 0.00777081
Heightened Def Con from 0.00777081 to 0.00777081
Heightened Def Con from 0.00777081 to 0.00777081
Heightened Def Con from 0.00777081 to 0.00777081
Heightened Def Con from 0.00777081 to 0.00777081
Heightened Def Con from 0.00777081 to 0.00777081
Heightened Def Con from 0.00777081 to 0.00777081
Heightened Def Con from 0.00777081 to 0.00777081
Heightened Def Con from 0.00777081 to 0.00777081
Heightened Def Con from 0.00777081 to 0.00777081
Heightened Def Con from 0.00777081 to 0.00777081
Heightened Def Con from 0.00777081 to 0.00777081
Heightened Def Con from 0.00777081 to 0.00777082
Heightened Def Con from 0.00777082 to 0.00777082
Heightened Def Con from 0.00777082 to 0.00777082
Heightened Def Con from 0.00777082 to 0.00777082
Heightened Def Con from 0.00777082 to 0.00777082
Heightened Def Con from 0.00777082 to 0.00777082
Heightened Def Con from 0.00777082 to 0.00777082
Heightened Def Con from 0.00777082 to 0.00777082
Heightened Def Con from 0.00777082 to 0.00777082
Heightened Def Con from 0.00777082 to 0.00777082
Heightened Def Con from 0.00777082 to 0.00777082
Heightened Def Con from 0.00777082 to 0.00777083
Heightened Def Con from 0.00778115 to 0.00778115
Heightened Def Con from 0.00778115 to 0.00778115
Heightened Def Con from 0.00778115 to 0.00778116
Heightened Def Con from 0.00778116 to 0.00778116
Heightened Def Con from 0.00778116 to 0.00778116
Heightened Def Con from 0.00778116 to 0.00778116
Heightened Def Con from 0.00778116 to 0.00778116
Heightened Def Con from 0.00778117 to 0.00778117
Heightened Def Con from 0.00778117 