Circuit: * C:\Users\dinod\Desktop\Power amplifier\Power-amplifier\Simulation\Amplifier\Output stage\V6.asc

Warning: Multiple definitions of model "2scr375p" Type: BJT
Warning: Multiple definitions of model "bc857b" Type: BJT
Warning: Multiple definitions of model "bc847c" Type: BJT
Warning: Multiple definitions of model "bc847b" Type: BJT
Direct Newton iteration for .op point succeeded.
N-Period=100
Fourier components of V(vout)
DC component:-15.989

Harmonic	Frequency	 Fourier 	Normalized	 Phase  	Normalized
 Number 	  [Hz]   	Component	 Component	[degree]	Phase [deg]
    1   	 1.000e+4	 2.490e-14	 1.000e+0	  177.49°	    0.00°
    2   	 2.000e+4	 7.737e-14	 3.107e+0	  -97.13°	 -274.62°
    3   	 3.000e+4	 1.518e-13	 6.097e+0	  -41.63°	 -219.12°
    4   	 4.000e+4	 6.593e-14	 2.647e+0	   -0.03°	 -177.52°
    5   	 5.000e+4	 9.353e-14	 3.756e+0	  -20.59°	 -198.08°
    6   	 6.000e+4	 4.284e-14	 1.720e+0	 -118.78°	 -296.27°
    7   	 7.000e+4	 2.404e-14	 9.654e-1	    4.00°	 -173.49°
    8   	 8.000e+4	 1.959e-14	 7.869e-1	   81.39°	  -96.10°
    9   	 9.000e+4	 5.005e-14	 2.010e+0	 -148.05°	 -325.54°
   10   	 1.000e+5	 4.313e-14	 1.732e+0	 -130.51°	 -308.00°
   11   	 1.100e+5	 3.435e-14	 1.380e+0	 -141.14°	 -318.63°
   12   	 1.200e+5	 2.796e-14	 1.123e+0	 -143.34°	 -320.83°
   13   	 1.300e+5	 2.755e-14	 1.106e+0	 -133.82°	 -311.31°
   14   	 1.400e+5	 8.802e-14	 3.535e+0	    6.07°	 -171.42°
   15   	 1.500e+5	 2.913e-14	 1.170e+0	  108.33°	  -69.16°
   16   	 1.600e+5	 2.985e-14	 1.199e+0	   36.60°	 -140.89°
   17   	 1.700e+5	 8.212e-14	 3.298e+0	   92.93°	  -84.56°
   18   	 1.800e+5	 6.336e-14	 2.544e+0	  -49.72°	 -227.21°
   19   	 1.900e+5	 2.382e-14	 9.565e-1	  -13.73°	 -191.22°
   20   	 2.000e+5	 5.238e-14	 2.103e+0	  126.72°	  -50.77°
Partial Harmonic Distortion: 1103.915955%
Total Harmonic Distortion:   265123.580535%



Date: Mon Jul 21 19:23:50 2025
Total elapsed time: 6.700 seconds.

tnom = 27
temp = 27
method = modified trap
totiter = 401195
traniter = 401187
tranpoints = 200361
accept = 200273
rejected = 88
matrix size = 191
fillins = 237
solver = Normal
Avg thread counts: 1.0/3.0/1.0/1.0
Matrix Compiler1: 25.03 KB object code size  4.7/2.5/[1.0]
Matrix Compiler2: 20.88 KB object code size  1.9/2.4/[0.8]

