Circuit: * C:\Users\dinod\Desktop\Audio amplifier & power supply\Simulation\Amplifier\OLD\DC servo\DC servo - THD.asc

Warning: Multiple definitions of model "2scr375p" Type: BJT
Warning: Multiple definitions of model "bc857b" Type: BJT
Warning: Multiple definitions of model "bc847c" Type: BJT
Warning: Multiple definitions of model "bc847b" Type: BJT
Direct Newton iteration failed to find .op point.  (Use ".option noopiter" to skip.)
Starting Gmin stepping
Gmin = 10
Gmin = 1.07374
vernier = 0.5
vernier = 0.25
vernier = 0.125
vernier = 0.0625
vernier = 0.03125
Gmin = 1.31128
vernier = 0.0416667
vernier = 0.0208333
Gmin = 1.23215
vernier = 0.0277778
vernier = 0.037037
Gmin = 1.15308
vernier = 0.0493827
Gmin = 1.03563
vernier = 0.0246913
vernier = 0.0123457
vernier = 0.00617283
vernier = 0.00308642
Gmin = 1.01981
vernier = 0.00411522
Gmin = 1.01067
vernier = 0.00548696
vernier = 0.00731595
vernier = 0.00365797
Gmin = 1.00045
vernier = 0.00182899
vernier = 0.000914493
vernier = 0.000457247
Gmin = 0
Gmin stepping failed

Starting source stepping with srcstepmethod=0
Source Step = 3.0303%
vernier = 0.25
Source Step = 6.25%
Source Step = 8.14394%
Source Step = 10.0379%
Source Step = 11.9318%
Source Step = 13.8258%
Source Step = 15.7197%
vernier = 0.09375
Source Step = 18.5606%
Source Step = 21.4015%
Source Step = 24.2424%
Source Step = 27.0833%
Source Step = 29.9242%
vernier = 0.140625
Source Step = 34.0436%
Source Step = 38.3049%
Source Step = 42.5663%
Source Step = 46.8277%
Source Step = 51.089%
vernier = 0.210938
Source Step = 57.0549%
Source Step = 63.447%
Source Step = 69.839%
Source Step = 76.2311%
Source Step = 82.6231%
vernier = 0.316406
Source Step = 85.507%
Starting source stepping with srcstepmethod=1
Source Step = 3.0303%
Source Step = 33.3333%
Source Step = 63.6364%
Source Step = 70.4545%
Source Step = 78.0303%
Source Step = 85.6061%
Source Step = 93.1818%
Singular matrix:  Check nodes q2#quasi and q2#base
   Iteration No. 261
Singular matrix:  Check nodes q2#quasi and q2#base
   Iteration No. 1
Singular matrix:  Check nodes q2#quasi and q2#base
   Iteration No. 1
Singular matrix:  Check nodes q2#quasi and q2#base
   Iteration No. 1
Source Step = 95.4545%
Singular matrix:  Check nodes q2#quasi and q2#base
   Iteration No. 1
Singular matrix:  Check nodes q2#quasi and q2#base
   Iteration No. 1
Source stepping failed

Pseudo Transient succeeded in finding the operating point at 91.1503 s.
N-Period=100
Fourier components of V(vout)
DC component:-0.0803699

Harmonic	Frequency	 Fourier 	Normalized	 Phase  	Normalized
 Number 	  [Hz]   	Component	 Component	[degree]	Phase [deg]
    1   	 1.000e+4	 5.118e-13	 1.000e+0	   92.27°	    0.00°
    2   	 2.000e+4	 2.558e-13	 4.999e-1	   94.62°	    2.35°
    3   	 3.000e+4	 1.705e-13	 3.332e-1	   96.97°	    4.70°
    4   	 4.000e+4	 1.293e-13	 2.527e-1	   99.25°	    6.98°
    5   	 5.000e+4	 1.021e-13	 1.994e-1	  102.01°	    9.74°
    6   	 6.000e+4	 8.430e-14	 1.647e-1	  104.20°	   11.93°
    7   	 7.000e+4	 7.410e-14	 1.448e-1	  106.35°	   14.08°
    8   	 8.000e+4	 6.586e-14	 1.287e-1	  109.46°	   17.19°
    9   	 9.000e+4	 5.662e-14	 1.106e-1	  110.47°	   18.20°
   10   	 1.000e+5	 5.152e-14	 1.007e-1	  113.20°	   20.93°
   11   	 1.100e+5	 4.901e-14	 9.576e-2	  114.19°	   21.92°
   12   	 1.200e+5	 4.062e-14	 7.936e-2	  119.50°	   27.23°
   13   	 1.300e+5	 4.050e-14	 7.913e-2	  122.36°	   30.09°
   14   	 1.400e+5	 3.594e-14	 7.022e-2	  123.16°	   30.90°
   15   	 1.500e+5	 3.248e-14	 6.347e-2	  126.57°	   34.30°
   16   	 1.600e+5	 3.183e-14	 6.220e-2	  125.73°	   33.46°
   17   	 1.700e+5	 2.837e-14	 5.543e-2	  129.49°	   37.22°
   18   	 1.800e+5	 2.815e-14	 5.500e-2	  135.10°	   42.83°
   19   	 1.900e+5	 2.812e-14	 5.495e-2	  137.95°	   45.68°
   20   	 2.000e+5	 2.578e-14	 5.038e-2	  139.60°	   47.33°
Partial Harmonic Distortion: 77.314916%
Total Harmonic Distortion:   12825.099504%



Date: Fri Jun 20 21:33:53 2025
Total elapsed time: 7.486 seconds.

tnom = 27
temp = 27
method = modified trap
totiter = 218133
traniter = 200029
tranpoints = 100015
accept = 100015
rejected = 287
matrix size = 314
fillins = 1465
solver = Normal
Avg thread counts: 1.0/2.1/1.1/1.0
Matrix Compiler1: 160.95 KB object code size  14.1/6.3/[3.8]
Matrix Compiler2: 51.96 KB object code size  3.6/4.1/[1.8]

