Circuit: * C:\Users\dinod\Desktop\Audio amplifier & power supply\Simulation\Amplifier\DC servo\Draft1.asc

Warning: Multiple definitions of model "2scr375p" Type: BJT
Warning: Multiple definitions of model "bc857b" Type: BJT
Warning: Multiple definitions of model "bc847c" Type: BJT
Warning: Multiple definitions of model "bc847b" Type: BJT
WARNING: Node N014 is floating.

WARNING: Less than two connections to node n014.  This node is used by c4.
Direct Newton iteration failed to find .op point.  (Use ".option noopiter" to skip.)
Starting Gmin stepping
Gmin = 10
Gmin = 1.07374
vernier = 0.5
vernier = 0.25
vernier = 0.125
vernier = 0.0625
vernier = 0.03125
Gmin = 1.31128
vernier = 0.0416667
Gmin = 1.19447
vernier = 0.0555555
vernier = 0.074074
Gmin = 1.02178
vernier = 0.037037
vernier = 0.0185185
vernier = 0.00925925
Gmin = 1.0193
vernier = 0.0123457
vernier = 0.00617283
vernier = 0.00308642
vernier = 0.00411522
Gmin = 1.01329
vernier = 0.00548696
Gmin = 1.00087
vernier = 0.00274348
vernier = 0.00137174
vernier = 0.00068587
vernier = 0.000514403
Gmin = 0
Gmin stepping failed

Starting source stepping with srcstepmethod=0
Source Step = 3.0303%
vernier = 0.25
Source Step = 0.378788%
Source Step = 0.852273%
Source Step = 1.32576%
Source Step = 1.79924%
Source Step = 2.27273%
vernier = 0.0234375
Source Step = 2.91193%
Source Step = 3.62216%
Source Step = 4.33239%
Source Step = 5.04261%
Source Step = 5.75284%
vernier = 0.0351562
Source Step = 6.67614%
Source Step = 7.74148%
Source Step = 8.80682%
Source Step = 9.87216%
Source Step = 10.9375%
vernier = 0.0527344
Source Step = 12.2692%
Source Step = 13.8672%
Source Step = 15.4652%
Source Step = 17.0632%
Source Step = 18.6612%
vernier = 0.0791016
Source Step = 19.8747%
vernier = 0.00123596
Source Step = 19.8972%
Source Step = 19.9346%
Source Step = 19.9721%
Source Step = 20.0095%
Source Step = 20.047%
vernier = 0.00185394
Source Step = 20.0919%
Source Step = 20.1481%
Source Step = 20.2043%
Source Step = 20.2605%
Source Step = 20.3167%
vernier = 0.00278091
Source Step = 20.3813%
Source Step = 20.4655%
Source Step = 20.5498%
Source Step = 20.6341%
Source Step = 20.7183%
vernier = 0.00417137
Source Step = 20.811%
Source Step = 20.9375%
Source Step = 21.0639%
Source Step = 21.1903%
Source Step = 21.3167%
vernier = 0.00625706
Source Step = 21.4494%
Source Step = 21.639%
Source Step = 21.8286%
Source Step = 22.0182%
Source Step = 22.2078%
Source Step = 22.3974%
vernier = 0.00938559
Source Step = 22.6818%
Source Step = 22.9663%
Source Step = 23.2507%
Source Step = 23.5351%
Source Step = 23.8195%
vernier = 0.0140784
Source Step = 24.2319%
Source Step = 24.6585%
Source Step = 25.0851%
Source Step = 25.5117%
Source Step = 25.9384%
vernier = 0.0211176
Source Step = 26.5356%
Source Step = 27.1755%
Source Step = 27.8155%
Source Step = 28.4554%
Source Step = 29.0953%
vernier = 0.0316764
Source Step = 29.9592%
Source Step = 30.9191%
Source Step = 31.879%
Source Step = 32.8389%
Source Step = 33.7988%
vernier = 0.0475145
Source Step = 35.0466%
Source Step = 36.4865%
Source Step = 37.9263%
Source Step = 39.3661%
Source Step = 40.806%
vernier = 0.0712718
Source Step = 42.6058%
Source Step = 44.7655%
Source Step = 46.9253%
Source Step = 49.085%
Source Step = 51.2448%
Source Step = 51.481%
Source Step = 51.5147%
Source Step = 51.5485%
Source Step = 51.5822%
Source Step = 51.616%
vernier = 0.00167043
Source Step = 51.6582%
Source Step = 51.7088%
Source Step = 51.7594%
Source Step = 51.81%
Source Step = 51.8606%
vernier = 0.00250565
Source Step = 51.9214%
Source Step = 51.9973%
Source Step = 52.0732%
Source Step = 52.1492%
Source Step = 52.2251%
vernier = 0.00375847
Source Step = 52.3124%
Source Step = 52.4263%
Source Step = 52.5402%
Source Step = 52.6541%
Source Step = 52.768%
vernier = 0.00563771
Source Step = 52.8933%
Source Step = 53.0641%
Source Step = 53.235%
Source Step = 53.4058%
Source Step = 53.5766%
vernier = 0.00845657
Source Step = 53.756%
Source Step = 54.0123%
Source Step = 54.2685%
Source Step = 54.5248%
Source Step = 54.7811%
Source Step = 55.0373%
vernier = 0.0126848
Source Step = 55.4217%
Source Step = 55.8061%
Source Step = 56.1905%
Source Step = 56.5749%
Source Step = 56.9593%
vernier = 0.0190273
Source Step = 57.5166%
Source Step = 58.0932%
Source Step = 58.6698%
Source Step = 59.2464%
Source Step = 59.823%
vernier = 0.0285409
Source Step = 60.6302%
Source Step = 61.4951%
Source Step = 62.3599%
Source Step = 63.2248%
Source Step = 64.0897%
vernier = 0.0428114
Source Step = 65.2573%
Source Step = 66.5546%
Source Step = 67.8519%
Source Step = 69.1492%
Source Step = 70.4465%
vernier = 0.064217
Source Step = 72.133%
Source Step = 74.079%
Source Step = 76.025%
Source Step = 77.9709%
Source Step = 79.9169%
vernier = 0.0963256
Source Step = 82.3494%
Source Step = 85.2683%
Source Step = 88.1873%
Source Step = 90.5954%
vernier = 0.00602035
Starting source stepping with srcstepmethod=1
Source Step = 3.0303%
Source Step = 33.3333%
Source Step = 63.6364%
Source Step = 64.169%
Source Step = 64.2134%
Source Step = 64.243%
Source stepping failed

Pseudo transient terminated at 101.087 s, solution accepted ready or not!
Note: .fourier statements are only valid with a .tran command.
      No Fourier analysis performed.


Date: Sun Jun 15 21:36:44 2025
Total elapsed time: 3.185 seconds.

tnom = 27
temp = 27
method = trap
totiter = 25474
traniter = 0
tranpoints = 0
accept = 0
rejected = 311
matrix size = 315
fillins = 1244
solver = Normal
Avg thread counts: 3.2/7.0/1.8/1.3
Matrix Compiler1: 119.16 KB object code size  12.2/5.0/[5.2]
Matrix Compiler2: 48.43 KB object code size  2.9/4.0/[1.6]

