Circuit: * C:\Users\dinod\Desktop\Audio amplifier & power supply\Simulation\PSU\Regulator\Negative\High current - negative.asc

Questionable use of curly braces in "b§e_abm1 vyy 0 v={max(v(vxx),(v(vzz)+({ilim}*{rout})))}"
    Error: undefined symbol in: "max([v](vxx),(v(vzz)+((ilim)*(rout))))"
Warning: Multiple definitions of model "2scr375p" Type: BJT
Warning: Multiple definitions of model "bc857b" Type: BJT
Warning: Multiple definitions of model "bc847c" Type: BJT
Warning: Multiple definitions of model "bc847b" Type: BJT
WARNING: Less than two connections to node u1:n350468.  This node is used by e:u1:_abm2.
Direct Newton iteration failed to find .op point.  (Use ".option noopiter" to skip.)
Starting Gmin stepping
Gmin = 10
Gmin = 1.07374
vernier = 0.5
vernier = 0.25
vernier = 0.125
Gmin = 0.646178
vernier = 0.0625
vernier = 0.03125
vernier = 0.015625
vernier = 0.0078125
Gmin = 0.649764
vernier = 0.00390625
vernier = 0.00195312
vernier = 0.000976562
vernier = 0.000488281
Gmin = 0.650477
Gmin = 0
Gmin stepping failed

Starting source stepping with srcstepmethod=0
Source Step = 3.0303%
Source Step = 33.3333%
Source Step = 63.6364%
Source Step = 93.9394%
Source Step = 96.9815%
Source Step = 97.0111%
Source Step = 97.0407%
Source Step = 97.0703%
Source Step = 97.0999%
Source Step = 97.1295%
vernier = 0.00146484
Source Step = 97.1694%
Source Step = 97.2138%
Source Step = 97.2582%
Source Step = 97.3026%
Source Step = 97.347%
vernier = 0.00219727
Source Step = 97.4047%
Source Step = 97.4713%
Source Step = 97.5379%
Source Step = 97.6045%
Source Step = 97.671%
vernier = 0.0032959
Source Step = 97.7543%
Source Step = 97.8542%
Source Step = 97.954%
Source Step = 98.0539%
Source Step = 98.1538%
vernier = 0.00494385
Source Step = 98.2736%
Source Step = 98.4234%
Source Step = 98.5733%
Source Step = 98.7231%
Source Step = 98.8729%
vernier = 0.00741577
Source Step = 99.0452%
Source Step = 99.2699%
Source Step = 99.4946%
Source Step = 99.7193%
Source Step = 99.9441%
Source stepping succeeded in finding the operating point.

Ignoring empty pin current: Ix(u1:adj)
Ignoring empty pin current: Ix(u1:adj)

Date: Sun Apr 13 18:17:43 2025
Total elapsed time: 0.185 seconds.

tnom = 27
temp = 27
method = modified trap
totiter = 8139
traniter = 3501
tranpoints = 1751
accept = 1360
rejected = 391
matrix size = 54
fillins = 49
solver = Normal
Avg thread counts: 3.1/5.2/5.2/3.1
Matrix Compiler1: 4.65 KB object code size  1.4/0.5/[0.3]
Matrix Compiler2: off  [0.3]/0.6/0.3

