Circuit: * C:\Users\dinod\Desktop\Power amplifier\Power-amplifier\Simulation\Amplifier\Output stage - HV\Draft2.asc

Warning: Multiple definitions of model "2scr375p" Type: BJT
Warning: Multiple definitions of model "bc857b" Type: BJT
Warning: Multiple definitions of model "bc847c" Type: BJT
Warning: Multiple definitions of model "bc847b" Type: BJT
Instance "m:u1:4": Length shorter than recommended for a level 1 MOSFET.
Instance "m:u1:5": Length shorter than recommended for a level 1 MOSFET.
Instance "m:u1:19": Length shorter than recommended for a level 1 MOSFET.
Instance "m:u1:23": Length shorter than recommended for a level 1 MOSFET.
Instance "m:u1:57": Length shorter than recommended for a level 1 MOSFET.
Instance "m:u1:57": Width narrower than recommended for a level 1 MOSFET.
Instance "m:u1:67": Length shorter than recommended for a level 1 MOSFET.
Instance "m:u1:67": Width narrower than recommended for a level 1 MOSFET.
Instance "m:u1:68": Length shorter than recommended for a level 1 MOSFET.
Instance "m:u1:68": Width narrower than recommended for a level 1 MOSFET.
Instance "m:u1:41": Length shorter than recommended for a level 1 MOSFET.
Instance "m:u1:42": Length shorter than recommended for a level 1 MOSFET.
Instance "m:u1:43": Length shorter than recommended for a level 1 MOSFET.
Instance "m:u1:44": Length shorter than recommended for a level 1 MOSFET.
Instance "m:u1:45": Length shorter than recommended for a level 1 MOSFET.
Instance "m:u1:46": Length shorter than recommended for a level 1 MOSFET.
Instance "m:u1:58": Length shorter than recommended for a level 1 MOSFET.
Instance "m:u1:58": Width narrower than recommended for a level 1 MOSFET.
Instance "m:u1:59": Length shorter than recommended for a level 1 MOSFET.
Instance "m:u1:64": Length shorter than recommended for a level 1 MOSFET.
Instance "m:u1:65": Length shorter than recommended for a level 1 MOSFET.
Instance "m:u1:65": Width narrower than recommended for a level 1 MOSFET.
Instance "m:u1:66": Length shorter than recommended for a level 1 MOSFET.
Instance "m:u1:66": Width narrower than recommended for a level 1 MOSFET.
Direct Newton iteration failed to find .op point.  (Use ".option noopiter" to skip.)
Starting Gmin stepping
Gmin = 10
vernier = 0.5
vernier = 0.25
vernier = 0.125
Gmin = 5.5165
vernier = 0.0625
vernier = 0.03125
vernier = 0.015625
vernier = 0.0078125
Gmin = 5.6228
vernier = 0.00390625
vernier = 0.00195312
vernier = 0.000976562
vernier = 0.000488281
Gmin = 0
Gmin stepping failed

Starting source stepping with srcstepmethod=0
Source Step = 3.0303%
Source Step = 33.3333%
Source Step = 63.6364%
Source Step = 93.9394%
Source stepping succeeded in finding the operating point.

.step r=0.01
N-Period=100
Fourier components of V(vout)
DC component:-0.162429

Harmonic	Frequency	 Fourier 	Normalized	 Phase  	Normalized
 Number 	  [Hz]   	Component	 Component	[degree]	Phase [deg]
    1   	 1.000e+4	 9.510e-17	 1.000e+0	   30.12°	    0.00°
    2   	 2.000e+4	 3.319e-16	 3.490e+0	   91.02°	   60.89°
    3   	 3.000e+4	 1.822e-16	 1.916e+0	    7.28°	  -22.85°
    4   	 4.000e+4	 6.255e-16	 6.578e+0	   80.73°	   50.61°
    5   	 5.000e+4	 3.406e-16	 3.581e+0	  -79.86°	 -109.98°
    6   	 6.000e+4	 3.961e-16	 4.165e+0	   27.96°	   -2.16°
    7   	 7.000e+4	 8.987e-16	 9.450e+0	   79.85°	   49.72°
    8   	 8.000e+4	 1.503e-15	 1.580e+1	   72.67°	   42.55°
    9   	 9.000e+4	 7.861e-16	 8.266e+0	 -170.24°	 -200.37°
   10   	 1.000e+5	 1.525e-15	 1.604e+1	 -122.45°	 -152.58°
   11   	 1.100e+5	 1.042e-15	 1.095e+1	  171.70°	  141.58°
   12   	 1.200e+5	 6.262e-16	 6.584e+0	  108.89°	   78.77°
   13   	 1.300e+5	 7.400e-16	 7.781e+0	 -120.42°	 -150.54°
   14   	 1.400e+5	 2.731e-16	 2.872e+0	  172.99°	  142.87°
   15   	 1.500e+5	 1.994e-16	 2.097e+0	   58.05°	   27.93°
   16   	 1.600e+5	 2.548e-16	 2.679e+0	 -100.97°	 -131.09°
   17   	 1.700e+5	 1.811e-15	 1.904e+1	    1.89°	  -28.24°
   18   	 1.800e+5	 2.712e-16	 2.851e+0	   -4.82°	  -34.94°
   19   	 1.900e+5	 1.727e-15	 1.816e+1	 -162.43°	 -192.55°
   20   	 2.000e+5	 1.753e-15	 1.844e+1	 -176.62°	 -206.74°
Partial Harmonic Distortion: 4514.227147%
Total Harmonic Distortion:   2174145.602437%


.step r=0.25
N-Period=100
Fourier components of V(vout)
DC component:-0.0754605

Harmonic	Frequency	 Fourier 	Normalized	 Phase  	Normalized
 Number 	  [Hz]   	Component	 Component	[degree]	Phase [deg]
    1   	 1.000e+4	 1.215e-16	 1.000e+0	 -163.34°	    0.00°
    2   	 2.000e+4	 1.830e-16	 1.506e+0	 -163.14°	    0.20°
    3   	 3.000e+4	 1.107e-16	 9.112e-1	   67.04°	  230.37°
    4   	 4.000e+4	 8.861e-16	 7.291e+0	 -174.86°	  -11.52°
    5   	 5.000e+4	 4.071e-16	 3.349e+0	   38.82°	  202.16°
    6   	 6.000e+4	 7.556e-16	 6.216e+0	  179.37°	  342.70°
    7   	 7.000e+4	 4.472e-16	 3.679e+0	  -48.09°	  115.25°
    8   	 8.000e+4	 1.763e-16	 1.451e+0	  -38.69°	  124.65°
    9   	 9.000e+4	 5.268e-16	 4.334e+0	  -11.42°	  151.92°
   10   	 1.000e+5	 1.271e-15	 1.046e+1	   33.15°	  196.49°
   11   	 1.100e+5	 2.623e-16	 2.158e+0	 -100.30°	   63.04°
   12   	 1.200e+5	 1.752e-15	 1.442e+1	  139.96°	  303.30°
   13   	 1.300e+5	 2.130e-15	 1.753e+1	  -12.45°	  150.88°
   14   	 1.400e+5	 1.992e-15	 1.639e+1	  163.45°	  326.78°
   15   	 1.500e+5	 8.409e-16	 6.919e+0	   49.06°	  212.40°
   16   	 1.600e+5	 1.784e-15	 1.467e+1	 -126.67°	   36.67°
   17   	 1.700e+5	 2.356e-15	 1.938e+1	   39.71°	  203.05°
   18   	 1.800e+5	 2.109e-15	 1.736e+1	  -89.22°	   74.11°
   19   	 1.900e+5	 1.957e-15	 1.610e+1	  -84.92°	   78.42°
   20   	 2.000e+5	 1.055e-15	 8.684e+0	    5.46°	  168.80°
Partial Harmonic Distortion: 4809.278302%
Total Harmonic Distortion:   330627.627328%

.step r=0.5
N-Period=100
Fourier components of V(vout)
DC component:1.10066e-05

Harmonic	Frequency	 Fourier 	Normalized	 Phase  	Normalized
 Number 	  [Hz]   	Component	 Component	[degree]	Phase [deg]
    1   	 1.000e+4	 2.694e-16	 1.000e+0	   60.50°	    0.00°
    2   	 2.000e+4	 5.665e-16	 2.103e+0	   22.71°	  -37.79°
    3   	 3.000e+4	 4.340e-16	 1.611e+0	  -56.01°	 -116.51°
    4   	 4.000e+4	 6.410e-16	 2.380e+0	   76.81°	   16.31°
    5   	 5.000e+4	 1.510e-16	 5.605e-1	  -61.69°	 -122.19°
    6   	 6.000e+4	 8.333e-16	 3.093e+0	  117.71°	   57.21°
    7   	 7.000e+4	 1.561e-15	 5.794e+0	   70.02°	    9.52°
    8   	 8.000e+4	 1.292e-15	 4.795e+0	 -117.26°	 -177.77°
    9   	 9.000e+4	 3.616e-16	 1.342e+0	  -32.71°	  -93.21°
   10   	 1.000e+5	 5.688e-16	 2.111e+0	   48.92°	  -11.59°
   11   	 1.100e+5	 8.751e-16	 3.249e+0	   64.90°	    4.40°
   12   	 1.200e+5	 1.069e-15	 3.968e+0	  106.44°	   45.94°
   13   	 1.300e+5	 2.211e-16	 8.208e-1	   65.97°	    5.47°
   14   	 1.400e+5	 2.261e-15	 8.395e+0	    3.60°	  -56.90°
   15   	 1.500e+5	 2.267e-15	 8.415e+0	   33.96°	  -26.55°
   16   	 1.600e+5	 2.169e-15	 8.050e+0	 -133.82°	 -194.32°
   17   	 1.700e+5	 1.181e-15	 4.384e+0	  154.45°	   93.95°
   18   	 1.800e+5	 3.658e-15	 1.358e+1	  115.99°	   55.49°
   19   	 1.900e+5	 7.733e-16	 2.870e+0	 -101.93°	 -162.43°
   20   	 2.000e+5	 5.622e-16	 2.087e+0	  123.36°	   62.86°
Partial Harmonic Distortion: 2312.253616%
Total Harmonic Distortion:   126001.575733%

.step r=0.75
N-Period=100
Fourier components of V(vout)
DC component:0.0754825

Harmonic	Frequency	 Fourier 	Normalized	 Phase  	Normalized
 Number 	  [Hz]   	Component	 Component	[degree]	Phase [deg]
    1   	 1.000e+4	 1.235e-16	 1.000e+0	 -136.42°	    0.00°
    2   	 2.000e+4	 2.231e-16	 1.805e+0	  -35.19°	  101.23°
    3   	 3.000e+4	 1.665e-16	 1.348e+0	    3.35°	  139.77°
    4   	 4.000e+4	 3.915e-16	 3.169e+0	   90.10°	  226.53°
    5   	 5.000e+4	 8.329e-16	 6.742e+0	 -153.75°	  -17.33°
    6   	 6.000e+4	 5.229e-16	 4.232e+0	 -100.49°	   35.93°
    7   	 7.000e+4	 1.649e-15	 1.335e+1	   32.37°	  168.79°
    8   	 8.000e+4	 1.192e-15	 9.650e+0	 -113.98°	   22.44°
    9   	 9.000e+4	 1.072e-16	 8.679e-1	  -80.01°	   56.41°
   10   	 1.000e+5	 1.247e-15	 1.009e+1	 -178.45°	  -42.03°
   11   	 1.100e+5	 8.602e-16	 6.963e+0	 -167.68°	  -31.25°
   12   	 1.200e+5	 1.032e-15	 8.354e+0	  -44.48°	   91.94°
   13   	 1.300e+5	 1.596e-15	 1.291e+1	 -153.95°	  -17.53°
   14   	 1.400e+5	 6.858e-16	 5.551e+0	   56.62°	  193.04°
   15   	 1.500e+5	 7.081e-16	 5.731e+0	 -165.79°	  -29.37°
   16   	 1.600e+5	 9.338e-16	 7.558e+0	  -93.84°	   42.58°
   17   	 1.700e+5	 1.572e-15	 1.272e+1	  145.00°	  281.42°
   18   	 1.800e+5	 1.484e-15	 1.201e+1	  -31.69°	  104.73°
   19   	 1.900e+5	 6.206e-16	 5.023e+0	  120.12°	  256.54°
   20   	 2.000e+5	 2.816e-15	 2.279e+1	  -80.16°	   56.26°
Partial Harmonic Distortion: 4134.103670%
Total Harmonic Distortion:   821551.213796%

.step r=0.99
N-Period=100
Fourier components of V(vout)
DC component:0.162451

Harmonic	Frequency	 Fourier 	Normalized	 Phase  	Normalized
 Number 	  [Hz]   	Component	 Component	[degree]	Phase [deg]
    1   	 1.000e+4	 1.479e-16	 1.000e+0	   74.68°	    0.00°
    2   	 2.000e+4	 1.844e-16	 1.247e+0	  156.36°	   81.68°
    3   	 3.000e+4	 2.030e-17	 1.373e-1	  175.80°	  101.12°
    4   	 4.000e+4	 5.197e-16	 3.514e+0	  -84.29°	 -158.96°
    5   	 5.000e+4	 5.188e-16	 3.508e+0	   36.53°	  -38.14°
    6   	 6.000e+4	 1.566e-16	 1.059e+0	  130.25°	   55.57°
    7   	 7.000e+4	 1.457e-15	 9.852e+0	   98.79°	   24.12°
    8   	 8.000e+4	 1.145e-15	 7.746e+0	  163.93°	   89.26°
    9   	 9.000e+4	 1.496e-15	 1.011e+1	 -143.41°	 -218.09°
   10   	 1.000e+5	 1.784e-15	 1.207e+1	  112.51°	   37.84°
   11   	 1.100e+5	 1.188e-15	 8.032e+0	   60.06°	  -14.62°
   12   	 1.200e+5	 1.440e-15	 9.740e+0	  125.70°	   51.02°
   13   	 1.300e+5	 1.966e-15	 1.329e+1	  -36.33°	 -111.00°
   14   	 1.400e+5	 1.472e-15	 9.955e+0	  -66.29°	 -140.97°
   15   	 1.500e+5	 2.511e-15	 1.698e+1	 -128.89°	 -203.57°
   16   	 1.600e+5	 4.521e-16	 3.057e+0	  164.17°	   89.49°
   17   	 1.700e+5	 9.476e-16	 6.408e+0	  -27.99°	 -102.66°
   18   	 1.800e+5	 1.478e-15	 9.995e+0	 -106.40°	 -181.08°
   19   	 1.900e+5	 3.884e-15	 2.626e+1	 -167.93°	 -242.60°
   20   	 2.000e+5	 2.050e-15	 1.386e+1	   40.09°	  -34.58°
Partial Harmonic Distortion: 4677.447765%
Total Harmonic Distortion:   293029.890631%


Date: Mon Jul 21 20:23:24 2025
Total elapsed time: 6.357 seconds.

tnom = 27
temp = 27
method = modified trap
totiter = 41863
traniter = 40034
tranpoints = 20018
accept = 20018
rejected = 0
matrix size = 249
fillins = 619
solver = Normal
Avg thread counts: 1.2/3.2/1.4/1.2
Matrix Compiler1: 39.86 KB object code size  7.4/3.1/[1.6]
Matrix Compiler2: 31.24 KB object code size  2.5/4.3/[1.2]

