Circuit: * C:\Users\dinod\Desktop\Power amplifier\Power-amplifier\Simulation\Amplifier\Output stage - HV\V3 - THD.asc

Warning: Multiple definitions of model "2scr375p" Type: BJT
Warning: Multiple definitions of model "bc857b" Type: BJT
Warning: Multiple definitions of model "bc847c" Type: BJT
Warning: Multiple definitions of model "bc847b" Type: BJT
Instance "m:u1:4": Length shorter than recommended for a level 1 MOSFET.
Instance "m:u1:5": Length shorter than recommended for a level 1 MOSFET.
Instance "m:u1:19": Length shorter than recommended for a level 1 MOSFET.
Instance "m:u1:23": Length shorter than recommended for a level 1 MOSFET.
Instance "m:u1:57": Length shorter than recommended for a level 1 MOSFET.
Instance "m:u1:57": Width narrower than recommended for a level 1 MOSFET.
Instance "m:u1:67": Length shorter than recommended for a level 1 MOSFET.
Instance "m:u1:67": Width narrower than recommended for a level 1 MOSFET.
Instance "m:u1:68": Length shorter than recommended for a level 1 MOSFET.
Instance "m:u1:68": Width narrower than recommended for a level 1 MOSFET.
Instance "m:u1:41": Length shorter than recommended for a level 1 MOSFET.
Instance "m:u1:42": Length shorter than recommended for a level 1 MOSFET.
Instance "m:u1:43": Length shorter than recommended for a level 1 MOSFET.
Instance "m:u1:44": Length shorter than recommended for a level 1 MOSFET.
Instance "m:u1:45": Length shorter than recommended for a level 1 MOSFET.
Instance "m:u1:46": Length shorter than recommended for a level 1 MOSFET.
Instance "m:u1:58": Length shorter than recommended for a level 1 MOSFET.
Instance "m:u1:58": Width narrower than recommended for a level 1 MOSFET.
Instance "m:u1:59": Length shorter than recommended for a level 1 MOSFET.
Instance "m:u1:64": Length shorter than recommended for a level 1 MOSFET.
Instance "m:u1:65": Length shorter than recommended for a level 1 MOSFET.
Instance "m:u1:65": Width narrower than recommended for a level 1 MOSFET.
Instance "m:u1:66": Length shorter than recommended for a level 1 MOSFET.
Instance "m:u1:66": Width narrower than recommended for a level 1 MOSFET.
Direct Newton iteration failed to find .op point.  (Use ".option noopiter" to skip.)
Starting Gmin stepping
Gmin = 10
vernier = 0.5
vernier = 0.25
vernier = 0.125
Gmin = 4.81882
vernier = 0.0625
vernier = 0.03125
vernier = 0.015625
vernier = 0.0078125
Gmin = 4.63658
vernier = 0.00390625
vernier = 0.00195312
vernier = 0.000976562
vernier = 0.000488281
Gmin = 4.62641
Gmin = 0
Gmin stepping failed

Starting source stepping with srcstepmethod=0
Source Step = 3.0303%
Source Step = 33.3333%
Source Step = 63.6364%
Source Step = 93.9394%
Source stepping succeeded in finding the operating point.

N-Period=100
Fourier components of V(vout)
DC component:1.09877e-05

Harmonic	Frequency	 Fourier 	Normalized	 Phase  	Normalized
 Number 	  [Hz]   	Component	 Component	[degree]	Phase [deg]
    1   	 1.000e+4	 9.997e+0	 1.000e+0	   90.32°	    0.00°
    2   	 2.000e+4	 1.646e-5	 1.646e-6	   16.02°	  -74.30°
    3   	 3.000e+4	 3.059e-4	 3.060e-5	   25.16°	  -65.15°
    4   	 4.000e+4	 3.417e-5	 3.418e-6	  -79.24°	 -169.56°
    5   	 5.000e+4	 1.637e-4	 1.638e-5	   10.67°	  -79.65°
    6   	 6.000e+4	 3.204e-5	 3.205e-6	 -100.36°	 -190.68°
    7   	 7.000e+4	 8.836e-5	 8.838e-6	  -12.58°	 -102.89°
    8   	 8.000e+4	 2.414e-5	 2.414e-6	 -119.83°	 -210.14°
    9   	 9.000e+4	 4.641e-5	 4.642e-6	  -35.11°	 -125.43°
   10   	 1.000e+5	 1.613e-5	 1.613e-6	 -140.57°	 -230.88°
   11   	 1.100e+5	 2.365e-5	 2.366e-6	  -56.85°	 -147.17°
   12   	 1.200e+5	 1.012e-5	 1.012e-6	 -161.32°	 -251.64°
   13   	 1.300e+5	 1.170e-5	 1.170e-6	  -78.26°	 -168.57°
   14   	 1.400e+5	 6.054e-6	 6.056e-7	  177.64°	   87.32°
   15   	 1.500e+5	 5.608e-6	 5.609e-7	  -99.29°	 -189.61°
   16   	 1.600e+5	 3.483e-6	 3.484e-7	  157.27°	   66.96°
   17   	 1.700e+5	 2.670e-6	 2.670e-7	 -120.46°	 -210.77°
   18   	 1.800e+5	 1.983e-6	 1.983e-7	  136.36°	   46.05°
   19   	 1.900e+5	 1.196e-6	 1.197e-7	 -139.13°	 -229.44°
   20   	 2.000e+5	 1.050e-6	 1.050e-7	  117.78°	   27.47°
Partial Harmonic Distortion: 0.003669%
Total Harmonic Distortion:   0.005156%



Date: Mon Jul 21 19:55:14 2025
Total elapsed time: 9.667 seconds.

tnom = 27
temp = 27
method = modified trap
totiter = 450763
traniter = 448906
tranpoints = 200042
accept = 200037
rejected = 5
matrix size = 248
fillins = 620
solver = Normal
Avg thread counts: 1.0/3.0/1.0/1.0
Matrix Compiler1: 40.22 KB object code size  7.6/2.8/[1.5]
Matrix Compiler2: 31.12 KB object code size  2.1/3.8/[1.1]

