Circuit: * C:\Users\dinod\Desktop\Power amplifier\Power-amplifier\Simulation\Amplifier\Output stage - HV\V3 OFFSET - DC.asc

Warning: Multiple definitions of model "2scr375p" Type: BJT
Warning: Multiple definitions of model "bc857b" Type: BJT
Warning: Multiple definitions of model "bc847c" Type: BJT
Warning: Multiple definitions of model "bc847b" Type: BJT
Instance "m:u1:4": Length shorter than recommended for a level 1 MOSFET.
Instance "m:u1:5": Length shorter than recommended for a level 1 MOSFET.
Instance "m:u1:19": Length shorter than recommended for a level 1 MOSFET.
Instance "m:u1:23": Length shorter than recommended for a level 1 MOSFET.
Instance "m:u1:57": Length shorter than recommended for a level 1 MOSFET.
Instance "m:u1:57": Width narrower than recommended for a level 1 MOSFET.
Instance "m:u1:67": Length shorter than recommended for a level 1 MOSFET.
Instance "m:u1:67": Width narrower than recommended for a level 1 MOSFET.
Instance "m:u1:68": Length shorter than recommended for a level 1 MOSFET.
Instance "m:u1:68": Width narrower than recommended for a level 1 MOSFET.
Instance "m:u1:41": Length shorter than recommended for a level 1 MOSFET.
Instance "m:u1:42": Length shorter than recommended for a level 1 MOSFET.
Instance "m:u1:43": Length shorter than recommended for a level 1 MOSFET.
Instance "m:u1:44": Length shorter than recommended for a level 1 MOSFET.
Instance "m:u1:45": Length shorter than recommended for a level 1 MOSFET.
Instance "m:u1:46": Length shorter than recommended for a level 1 MOSFET.
Instance "m:u1:58": Length shorter than recommended for a level 1 MOSFET.
Instance "m:u1:58": Width narrower than recommended for a level 1 MOSFET.
Instance "m:u1:59": Length shorter than recommended for a level 1 MOSFET.
Instance "m:u1:64": Length shorter than recommended for a level 1 MOSFET.
Instance "m:u1:65": Length shorter than recommended for a level 1 MOSFET.
Instance "m:u1:65": Width narrower than recommended for a level 1 MOSFET.
Instance "m:u1:66": Length shorter than recommended for a level 1 MOSFET.
Instance "m:u1:66": Width narrower than recommended for a level 1 MOSFET.
Direct Newton iteration failed to find .op point.  (Use ".option noopiter" to skip.)
Starting Gmin stepping
Gmin = 10
vernier = 0.5
vernier = 0.25
vernier = 0.125
Gmin = 5.5165
vernier = 0.0625
vernier = 0.03125
vernier = 0.015625
vernier = 0.0078125
Gmin = 5.6228
vernier = 0.00390625
vernier = 0.00195312
vernier = 0.000976562
vernier = 0.000488281
Gmin = 0
Gmin stepping failed

Starting source stepping with srcstepmethod=0
Source Step = 3.0303%
Source Step = 33.3333%
Source Step = 63.6364%
Source Step = 93.9394%
Source stepping succeeded in finding the operating point.

.step r=0.01
N-Period=100
Fourier components of V(vout)
DC component:-0.029386

Harmonic	Frequency	 Fourier 	Normalized	 Phase  	Normalized
 Number 	  [Hz]   	Component	 Component	[degree]	Phase [deg]
    1   	 1.000e+4	 3.254e-16	 1.000e+0	  -94.22°	    0.00°
    2   	 2.000e+4	 2.445e-16	 7.514e-1	   57.21°	  151.43°
    3   	 3.000e+4	 2.055e-16	 6.315e-1	   39.34°	  133.57°
    4   	 4.000e+4	 2.357e-16	 7.244e-1	   66.86°	  161.09°
    5   	 5.000e+4	 8.237e-16	 2.532e+0	  -98.82°	   -4.60°
    6   	 6.000e+4	 9.451e-16	 2.905e+0	 -104.19°	   -9.97°
    7   	 7.000e+4	 7.612e-16	 2.340e+0	   67.08°	  161.30°
    8   	 8.000e+4	 1.454e-15	 4.467e+0	   31.16°	  125.39°
    9   	 9.000e+4	 5.023e-16	 1.544e+0	  -48.92°	   45.31°
   10   	 1.000e+5	 1.138e-15	 3.497e+0	  -55.05°	   39.17°
   11   	 1.100e+5	 2.856e-15	 8.779e+0	  119.77°	  214.00°
   12   	 1.200e+5	 2.355e-15	 7.238e+0	  106.69°	  200.92°
   13   	 1.300e+5	 1.016e-15	 3.123e+0	  162.16°	  256.38°
   14   	 1.400e+5	 3.388e-15	 1.041e+1	  120.66°	  214.88°
   15   	 1.500e+5	 1.708e-15	 5.248e+0	  -70.74°	   23.48°
   16   	 1.600e+5	 3.525e-16	 1.083e+0	  -76.79°	   17.43°
   17   	 1.700e+5	 7.598e-16	 2.335e+0	   42.27°	  136.49°
   18   	 1.800e+5	 1.733e-15	 5.327e+0	 -154.26°	  -60.03°
   19   	 1.900e+5	 2.587e-15	 7.950e+0	  105.77°	  199.99°
   20   	 2.000e+5	 1.435e-15	 4.412e+0	  146.91°	  241.14°
Partial Harmonic Distortion: 2119.439978%
Total Harmonic Distortion:   124735.339701%


.step r=0.25
N-Period=100
Fourier components of V(vout)
DC component:-0.0149609

Harmonic	Frequency	 Fourier 	Normalized	 Phase  	Normalized
 Number 	  [Hz]   	Component	 Component	[degree]	Phase [deg]
    1   	 1.000e+4	 1.240e-16	 1.000e+0	 -131.75°	    0.00°
    2   	 2.000e+4	 1.885e-16	 1.519e+0	  -41.48°	   90.27°
    3   	 3.000e+4	 3.186e-16	 2.568e+0	 -160.44°	  -28.69°
    4   	 4.000e+4	 3.858e-16	 3.110e+0	 -175.23°	  -43.48°
    5   	 5.000e+4	 1.464e-16	 1.180e+0	  177.56°	  309.31°
    6   	 6.000e+4	 3.605e-16	 2.907e+0	  -96.99°	   34.75°
    7   	 7.000e+4	 4.767e-16	 3.843e+0	   35.32°	  167.07°
    8   	 8.000e+4	 7.861e-16	 6.338e+0	  -98.53°	   33.22°
    9   	 9.000e+4	 4.879e-16	 3.933e+0	   85.59°	  217.34°
   10   	 1.000e+5	 1.409e-15	 1.136e+1	   62.13°	  193.88°
   11   	 1.100e+5	 3.443e-16	 2.776e+0	  -66.98°	   64.77°
   12   	 1.200e+5	 9.555e-16	 7.703e+0	   15.39°	  147.14°
   13   	 1.300e+5	 9.662e-16	 7.789e+0	  -32.03°	   99.71°
   14   	 1.400e+5	 1.327e-15	 1.070e+1	  156.93°	  288.68°
   15   	 1.500e+5	 1.258e-15	 1.014e+1	   71.77°	  203.52°
   16   	 1.600e+5	 1.115e-15	 8.986e+0	  -29.64°	  102.11°
   17   	 1.700e+5	 1.837e-15	 1.481e+1	  121.62°	  253.36°
   18   	 1.800e+5	 2.674e-15	 2.156e+1	  -71.83°	   59.92°
   19   	 1.900e+5	 1.100e-15	 8.865e+0	  144.77°	  276.51°
   20   	 2.000e+5	 1.284e-15	 1.035e+1	   29.13°	  160.88°
Partial Harmonic Distortion: 3902.910147%
Total Harmonic Distortion:   366616.494309%

.step r=0.5
N-Period=100
Fourier components of V(vout)
DC component:1.09853e-05

Harmonic	Frequency	 Fourier 	Normalized	 Phase  	Normalized
 Number 	  [Hz]   	Component	 Component	[degree]	Phase [deg]
    1   	 1.000e+4	 1.874e-16	 1.000e+0	   70.72°	    0.00°
    2   	 2.000e+4	 3.684e-16	 1.966e+0	   37.03°	  -33.69°
    3   	 3.000e+4	 5.830e-16	 3.111e+0	 -177.47°	 -248.19°
    4   	 4.000e+4	 3.613e-16	 1.928e+0	   82.73°	   12.01°
    5   	 5.000e+4	 4.645e-16	 2.479e+0	   40.69°	  -30.03°
    6   	 6.000e+4	 5.267e-16	 2.811e+0	  -65.26°	 -135.98°
    7   	 7.000e+4	 1.524e-15	 8.135e+0	  -35.74°	 -106.46°
    8   	 8.000e+4	 1.506e-15	 8.036e+0	   72.29°	    1.57°
    9   	 9.000e+4	 3.887e-16	 2.074e+0	  -42.19°	 -112.91°
   10   	 1.000e+5	 1.180e-15	 6.299e+0	  114.69°	   43.97°
   11   	 1.100e+5	 3.108e-16	 1.659e+0	   21.69°	  -49.03°
   12   	 1.200e+5	 6.349e-16	 3.388e+0	 -138.22°	 -208.94°
   13   	 1.300e+5	 1.495e-15	 7.979e+0	  178.93°	  108.21°
   14   	 1.400e+5	 1.762e-15	 9.405e+0	   36.08°	  -34.64°
   15   	 1.500e+5	 2.254e-15	 1.203e+1	   62.48°	   -8.24°
   16   	 1.600e+5	 2.725e-15	 1.454e+1	  179.06°	  108.34°
   17   	 1.700e+5	 1.526e-15	 8.142e+0	 -122.53°	 -193.25°
   18   	 1.800e+5	 3.797e-15	 2.026e+1	   60.45°	  -10.27°
   19   	 1.900e+5	 1.041e-15	 5.555e+0	  135.10°	   64.38°
   20   	 2.000e+5	 1.901e-15	 1.015e+1	   33.25°	  -37.47°
Partial Harmonic Distortion: 3659.448897%
Total Harmonic Distortion:   218656.920691%

.step r=0.75
N-Period=100
Fourier components of V(vout)
DC component:0.0149829

Harmonic	Frequency	 Fourier 	Normalized	 Phase  	Normalized
 Number 	  [Hz]   	Component	 Component	[degree]	Phase [deg]
    1   	 1.000e+4	 2.291e-16	 1.000e+0	 -120.38°	    0.00°
    2   	 2.000e+4	 1.713e-16	 7.478e-1	 -156.72°	  -36.34°
    3   	 3.000e+4	 1.883e-16	 8.221e-1	  -17.88°	  102.49°
    4   	 4.000e+4	 4.310e-16	 1.881e+0	   82.91°	  203.29°
    5   	 5.000e+4	 3.617e-16	 1.579e+0	   -6.98°	  113.39°
    6   	 6.000e+4	 6.778e-16	 2.959e+0	  -53.75°	   66.63°
    7   	 7.000e+4	 1.316e-15	 5.743e+0	  -67.01°	   53.37°
    8   	 8.000e+4	 1.234e-16	 5.386e-1	 -151.94°	  -31.56°
    9   	 9.000e+4	 1.347e-15	 5.881e+0	  161.43°	  281.81°
   10   	 1.000e+5	 1.192e-15	 5.205e+0	   30.74°	  151.12°
   11   	 1.100e+5	 1.969e-15	 8.593e+0	  -31.15°	   89.22°
   12   	 1.200e+5	 9.098e-16	 3.972e+0	  -89.03°	   31.35°
   13   	 1.300e+5	 2.732e-15	 1.193e+1	 -152.91°	  -32.53°
   14   	 1.400e+5	 1.587e-15	 6.927e+0	  -58.77°	   61.61°
   15   	 1.500e+5	 1.021e-15	 4.455e+0	  -72.80°	   47.57°
   16   	 1.600e+5	 2.582e-15	 1.127e+1	 -127.09°	   -6.71°
   17   	 1.700e+5	 1.496e-15	 6.528e+0	 -164.28°	  -43.90°
   18   	 1.800e+5	 1.691e-15	 7.382e+0	  -82.21°	   38.17°
   19   	 1.900e+5	 9.652e-16	 4.213e+0	  -39.39°	   80.99°
   20   	 2.000e+5	 1.016e-15	 4.433e+0	   93.76°	  214.14°
Partial Harmonic Distortion: 2592.743997%
Total Harmonic Distortion:   162383.659463%

.step r=0.99
N-Period=100
Fourier components of V(vout)
DC component:0.029408

Harmonic	Frequency	 Fourier 	Normalized	 Phase  	Normalized
 Number 	  [Hz]   	Component	 Component	[degree]	Phase [deg]
    1   	 1.000e+4	 4.823e-16	 1.000e+0	  165.59°	    0.00°
    2   	 2.000e+4	 9.730e-16	 2.017e+0	    5.16°	 -160.43°
    3   	 3.000e+4	 9.472e-16	 1.964e+0	   70.35°	  -95.24°
    4   	 4.000e+4	 3.919e-16	 8.126e-1	  112.14°	  -53.45°
    5   	 5.000e+4	 3.119e-16	 6.466e-1	  103.59°	  -62.00°
    6   	 6.000e+4	 1.088e-15	 2.255e+0	 -166.34°	 -331.93°
    7   	 7.000e+4	 8.038e-16	 1.667e+0	  155.62°	   -9.96°
    8   	 8.000e+4	 1.195e-15	 2.478e+0	  158.51°	   -7.08°
    9   	 9.000e+4	 1.092e-15	 2.265e+0	  140.52°	  -25.07°
   10   	 1.000e+5	 1.285e-15	 2.664e+0	  141.10°	  -24.49°
   11   	 1.100e+5	 4.228e-16	 8.766e-1	   58.77°	 -106.82°
   12   	 1.200e+5	 7.710e-16	 1.598e+0	  -91.16°	 -256.75°
   13   	 1.300e+5	 1.260e-15	 2.612e+0	 -164.69°	 -330.27°
   14   	 1.400e+5	 1.004e-15	 2.082e+0	  -10.55°	 -176.14°
   15   	 1.500e+5	 3.024e-15	 6.269e+0	  -34.24°	 -199.83°
   16   	 1.600e+5	 1.937e-15	 4.015e+0	  -65.79°	 -231.38°
   17   	 1.700e+5	 1.314e-15	 2.725e+0	  152.38°	  -13.21°
   18   	 1.800e+5	 2.742e-15	 5.684e+0	   31.31°	 -134.27°
   19   	 1.900e+5	 2.289e-15	 4.746e+0	  153.97°	  -11.62°
   20   	 2.000e+5	 1.620e-15	 3.359e+0	  -76.80°	 -242.38°
Partial Harmonic Distortion: 1336.708150%
Total Harmonic Distortion:   100978.425381%


Date: Mon Jul 21 20:35:10 2025
Total elapsed time: 6.914 seconds.

tnom = 27
temp = 27
method = modified trap
totiter = 41891
traniter = 40034
tranpoints = 20018
accept = 20018
rejected = 0
matrix size = 249
fillins = 609
solver = Normal
Avg thread counts: 1.2/3.2/1.4/1.2
Matrix Compiler1: 37.96 KB object code size  7.2/3.0/[1.7]
Matrix Compiler2: 31.23 KB object code size  3.4/4.2/[1.2]

