Circuit: * C:\Users\dinod\Desktop\Audio amplifier & power supply\Simulation\power amp gain stage - AC.asc

Direct Newton iteration for .op point succeeded.

Date: Sun Mar  9 15:30:28 2025
Total elapsed time: 0.029 seconds.

tnom = 27
temp = 27
method = trap
totiter = 5
traniter = 0
tranpoints = 0
accept = 0
rejected = 0
matrix size = 283
fillins = 349
solver = Normal
Avg thread counts: 20.0/0.0/20.0/20.0
Matrix Compiler1:    1906 opcodes
Matrix Compiler2: 29.96 KB object code size
