Circuit: * C:\Users\dinod\Desktop\Audio amplifier & power supply\Simulation\PSU\Current limit\Comparator\Comaprator.asc

WARNING: Less than two connections to node -v.  This node is used by v2.
Direct Newton iteration for .op point succeeded.
.step k=0
.step k=25
.step k=50
.step k=75
.step k=100

Date: Mon May 12 18:46:10 2025
Total elapsed time: 0.384 seconds.

tnom = 27
temp = 27
method = modified trap
totiter = 2272
traniter = 2246
tranpoints = 1093
accept = 1080
rejected = 13
matrix size = 12
fillins = 10
solver = Normal
Avg thread counts: 4.3/7.8/7.8/4.3
Matrix Compiler1:      41 opcodes  0.4/[0.1]/0.2
Matrix Compiler2: off  [0.1]/0.2/0.2

