Circuit: * C:\Users\dinod\Desktop\Audio amplifier & power supply\Simulation\PSU\Current limit\Comparator\Comaprator - hystheresis.asc

WARNING: Less than two connections to node -v.  This node is used by v2.
WARNING: Less than two connections to node n005.  This node is used by r7.
Direct Newton iteration failed to find .op point.  (Use ".option noopiter" to skip.)
Starting Gmin stepping
Gmin = 10
Gmin = 1.07374
Gmin = 0.115292
Gmin = 0.0123794
vernier = 0.5
Gmin = 0.0025641
vernier = 0.25
vernier = 0.125
vernier = 0.0625
vernier = 0.03125
Gmin = 0.002673
vernier = 0.0416667
vernier = 0.0555555
Gmin = 0.00242028
vernier = 0.074074
Gmin = 0.00206096
vernier = 0.0987653
vernier = 0.131687
Gmin = 0.00158613
vernier = 0.175583
vernier = 0.23411
Gmin = 0.00105073
vernier = 0.117055
vernier = 0.0585276
vernier = 0.0292638
vernier = 0.0146319
Gmin = 0.00100614
vernier = 0.00731595
vernier = 0.00365797
vernier = 0.00182899
Gmin = 0.000999727
vernier = 0.000914493
vernier = 0.000457247
Gmin = 0
Gmin stepping failed

Starting source stepping with srcstepmethod=0
Source Step = 3.0303%
vernier = 0.25
Source Step = 7.57576%
Source Step = 15.1515%
Source Step = 22.7273%
Source Step = 30.303%
Source Step = 37.8788%
vernier = 0.375
Source Step = 48.8636%
Source Step = 60.2273%
Source Step = 71.5909%
Source Step = 82.9545%
Source Step = 94.3182%
vernier = 0.5625
Source stepping succeeded in finding the operating point.

.step rh=4.7e+06
Heightened Def Con from 0.0531851 to 0.0531851
Heightened Def Con from 0.177753 to 0.177753
.step rh=6.8e+06
.step rh=8.2e+06

Date: Sat May 24 16:20:43 2025
Total elapsed time: 1.240 seconds.

tnom = 27
temp = 27
method = modified trap
totiter = 15282
traniter = 12740
tranpoints = 3559
accept = 2935
rejected = 626
matrix size = 145
fillins = 284
solver = Normal
Avg thread counts: 1.6/3.1/2.0/1.6
Matrix Compiler1: 24.45 KB object code size  4.2/2.0/[1.0]
Matrix Compiler2: 16.96 KB object code size  1.7/2.2/[0.9]

