Circuit: * C:\Users\dinod\Desktop\Audio amplifier & power supply\Simulation\PSU\Current limit\Comparator\Draft2.asc

Warning: Multiple definitions of model "2scr375p" Type: BJT
Warning: Multiple definitions of model "bc857b" Type: BJT
Warning: Multiple definitions of model "bc847c" Type: BJT
Warning: Multiple definitions of model "bc847b" Type: BJT
Direct Newton iteration for .op point succeeded.
.step r=0.5
.step r=0.75
.step r=1.25
.step r=1.5

Date: Sat Jun  7 19:00:04 2025
Total elapsed time: 0.366 seconds.

tnom = 27
temp = 27
method = modified trap
totiter = 7800
traniter = 7762
tranpoints = 3882
accept = 2418
rejected = 1464
matrix size = 31
fillins = 8
solver = Normal
Avg thread counts: 1.9/2.9/2.9/1.9
Matrix Compiler1: 2.93 KB object code size  0.5/0.3/[0.3]
Matrix Compiler2: off  [0.3]/0.4/0.3

