Circuit: * C:\Users\dinod\Desktop\Audio amplifier & power supply\Simulation\PSU\Current limit\Comparator\Draft1.asc

ERROR: Node NC_01 is floating and connected to current source I1

WARNING: Less than two connections to node +v.  This node is used by v1.
Direct Newton iteration failed to find .op point.  (Use ".option noopiter" to skip.)
Starting Gmin stepping
Gmin = 10
Gmin = 1.07374
vernier = 0.5
vernier = 0.25
vernier = 0.125
vernier = 0.0625
Gmin = 1.02519
vernier = 0.03125
vernier = 0.015625
vernier = 0.0078125
vernier = 0.00390625
vernier = 0.00195312
vernier = 0.000976562
vernier = 0.000488281
Gmin = 1.01724
Gmin = 0
Gmin stepping failed

Starting source stepping with srcstepmethod=0
Source Step = 3.0303%
vernier = 0.25
Source Step = 7.57576%
Source Step = 15.1515%
Source Step = 22.7273%
Source Step = 30.303%
Source Step = 37.8788%
vernier = 0.375
Source Step = 48.8636%
Source Step = 60.2273%
Source Step = 71.5909%
Source Step = 82.9545%
Source Step = 89.7905%
vernier = 0.00146484
Source Step = 89.8171%
Source Step = 89.8615%
Source Step = 89.9059%
Source Step = 89.9503%
Source Step = 89.9947%
vernier = 0.00219727
Source Step = 90.0546%
Source Step = 90.1212%
Source Step = 90.1878%
Source Step = 90.2544%
Starting source stepping with srcstepmethod=1
Source Step = 3.0303%
Source Step = 33.3333%
Source Step = 63.6364%
Source Step = 93.9394%
Source Step = 99.0473%
vernier = 0.00390625
Source stepping failed

Pseudo Transient succeeded in finding the operating point at 6.07958 s.
Heightened Def Con from 0.000132612 to 0.000132613
Heightened Def Con from 0.000235387 ++to 0.000235387

Date: Mon May 26 21:05:41 2025
Total elapsed time: 1.301 seconds.

tnom = 27
temp = 27
method = modified trap
totiter = 25156
traniter = 5906
tranpoints = 1932
accept = 1693
rejected = 422
matrix size = 152
fillins = 334
solver = Normal
Avg thread counts: 2.2/5.0/4.3/2.2
Matrix Compiler1: 26.39 KB object code size  4.0/1.3/[0.7]
Matrix Compiler2: 18.30 KB object code size  1.2/1.6/[0.6]

