Circuit: * C:\Users\dinod\Desktop\Audio amplifier & power supply\Simulation\Power amp\power amp - trans.asc

Warning: Multiple definitions of model "2scr375p" Type: BJT
Warning: Multiple definitions of model "bc857b" Type: BJT
Warning: Multiple definitions of model "bc847c" Type: BJT
Warning: Multiple definitions of model "bc847b" Type: BJT
Direct Newton iteration for .op point succeeded.

Date: Sun Mar  9 16:42:04 2025
Total elapsed time: 2.230 seconds.

tnom = 27
temp = 27
method = modified trap
totiter = 144225
traniter = 144216
tranpoints = 33721
accept = 25296
rejected = 8425
matrix size = 302
fillins = 380
solver = Normal
Avg thread counts: 1.1/1.2/1.1/1.1
Matrix Compiler1: 36.72 KB object code size  6.5/2.9/[2.3]
Matrix Compiler2: 32.45 KB object code size  2.9/3.6/[1.5]

