Circuit: * C:\Users\dinod\Desktop\Audio amplifier & power supply\Simulation\power amp - AC.asc

Warning: Multiple definitions of model "2scr375p" Type: BJT
Warning: Multiple definitions of model "bc857b" Type: BJT
Warning: Multiple definitions of model "bc847c" Type: BJT
Warning: Multiple definitions of model "bc847b" Type: BJT
Direct Newton iteration for .op point succeeded.

Date: Sun Mar  9 15:42:46 2025
Total elapsed time: 0.034 seconds.

tnom = 27
temp = 27
method = trap
totiter = 9
traniter = 0
tranpoints = 0
accept = 0
rejected = 0
matrix size = 302
fillins = 376
solver = Normal
Avg thread counts: 20.0/0.0/20.0/20.0
Matrix Compiler1:    2080 opcodes
Matrix Compiler2: 32.45 KB object code size
