Circuit: * C:\Users\dinod\Desktop\Audio amplifier & power supply\Simulation\Amplifier\THD analysis\Draft1.asc

Warning: Multiple definitions of model "2scr375p" Type: BJT
Warning: Multiple definitions of model "bc857b" Type: BJT
Warning: Multiple definitions of model "bc847c" Type: BJT
Warning: Multiple definitions of model "bc847b" Type: BJT
Direct Newton iteration for .op point succeeded.
Note: .fourier statements are only valid with a .tran command.
      No Fourier analysis performed.


Date: Sun Jun 15 18:27:51 2025
Total elapsed time: 0.038 seconds.

tnom = 27
temp = 27
method = trap
totiter = 8
traniter = 0
tranpoints = 0
accept = 0
rejected = 0
matrix size = 34
fillins = 34
solver = Normal
Avg thread counts: 20.0/0.0/20.0/10.8
Matrix Compiler1:     257 opcodes
Matrix Compiler2: 3.67 KB object code size
