Circuit: * C:\Users\dinod\Desktop\Audio amplifier & power supply\Simulation\PSU\Current limit\Negtaive\Current limit - negative.asc

Limiting fall time of source i1 to 1
WARNING: Less than two connections to node n009.  This node is used by v1.
WARNING: Less than two connections to node +v.  This node is used by v2.
Direct Newton iteration failed to find .op point.  (Use ".option noopiter" to skip.)
Starting Gmin stepping
Gmin = 10
Gmin = 1.07374
vernier = 0.5
vernier = 0.25
vernier = 0.125
vernier = 0.0625
Gmin = 1.02519
vernier = 0.03125
vernier = 0.015625
vernier = 0.0078125
vernier = 0.00390625
vernier = 0.00195312
vernier = 0.000976562
vernier = 0.000488281
Gmin = 1.01724
Gmin = 0
Gmin stepping failed

Starting source stepping with srcstepmethod=0
Source Step = 3.0303%
vernier = 0.25
Source Step = 7.57576%
Source Step = 15.1515%
Source Step = 22.7273%
Source Step = 30.303%
Source Step = 37.8788%
vernier = 0.375
Source Step = 48.8636%
Source Step = 60.2273%
Source Step = 71.5909%
Source Step = 82.9545%
Source Step = 94.3182%
vernier = 0.5625
Source stepping succeeded in finding the operating point.

Heightened Def Con from 0.130739 to 0.130739
Heightened Def Con from 1 to 1

Date: Sat May 10 21:45:41 2025
Total elapsed time: 0.376 seconds.

tnom = 27
temp = 27
method = modified trap
totiter = 12556
traniter = 10403
tranpoints = 2762
accept = 2331
rejected = 433
matrix size = 154
fillins = 306
solver = Normal
Avg thread counts: 1.7/3.7/3.0/1.7
Matrix Compiler1: 24.03 KB object code size  11.3/2.4/[1.0]
Matrix Compiler2: 17.96 KB object code size  1.5/2.1/[0.7]

