Circuit: * C:\Users\dinod\Desktop\Audio amplifier & power supply\Simulation\Amplifier\Output stage\V1 (npn) THD.asc

Warning: Multiple definitions of model "2scr375p" Type: BJT
Warning: Multiple definitions of model "bc857b" Type: BJT
Warning: Multiple definitions of model "bc847c" Type: BJT
Warning: Multiple definitions of model "bc847b" Type: BJT
Direct Newton iteration for .op point succeeded.
Heightened Def Con from 2.88932e-07 to 2.88932e-07
Heightened Def Con from 0.0604596 to 0.0604596
Heightened Def Con from 0.0661596 to 0.0661596
N-Period=100
Fourier components of V(vout)
DC component:-16.0919

Harmonic	Frequency	 Fourier 	Normalized	 Phase  	Normalized
 Number 	  [Hz]   	Component	 Component	[degree]	Phase [deg]
    1   	 1.000e+4	 6.311e-3	 1.000e+0	   82.58°	    0.00°
    2   	 2.000e+4	 7.671e-5	 1.216e-2	  -17.52°	 -100.11°
    3   	 3.000e+4	 4.391e-5	 6.957e-3	 -112.48°	 -195.06°
    4   	 4.000e+4	 1.397e-5	 2.213e-3	  151.41°	   68.82°
    5   	 5.000e+4	 5.790e-6	 9.175e-4	 -123.54°	 -206.13°
    6   	 6.000e+4	 1.190e-5	 1.885e-3	  141.95°	   59.37°
    7   	 7.000e+4	 7.313e-6	 1.159e-3	   47.76°	  -34.82°
    8   	 8.000e+4	 8.375e-7	 1.327e-4	  141.14°	   58.55°
    9   	 9.000e+4	 5.802e-6	 9.195e-4	   43.09°	  -39.49°
   10   	 1.000e+5	 4.995e-6	 7.915e-4	  -50.03°	 -132.61°
   11   	 1.100e+5	 4.846e-7	 7.679e-5	 -150.51°	 -233.10°
   12   	 1.200e+5	 3.475e-6	 5.506e-4	  -51.99°	 -134.58°
   13   	 1.300e+5	 3.891e-6	 6.165e-4	 -144.17°	 -226.75°
   14   	 1.400e+5	 1.091e-6	 1.728e-4	  122.09°	   39.51°
   15   	 1.500e+5	 2.128e-6	 3.373e-4	 -143.90°	 -226.48°
   16   	 1.600e+5	 3.095e-6	 4.904e-4	  124.09°	   41.51°
   17   	 1.700e+5	 1.340e-6	 2.124e-4	   32.00°	  -50.58°
   18   	 1.800e+5	 1.284e-6	 2.035e-4	  126.27°	   43.69°
   19   	 1.900e+5	 2.495e-6	 3.953e-4	   33.45°	  -49.13°
   20   	 2.000e+5	 1.456e-6	 2.308e-4	  -58.48°	 -141.06°
Partial Harmonic Distortion: 1.448026%
Total Harmonic Distortion:   1.450269%



Date: Sat Jun 21 12:33:35 2025
Total elapsed time: 8.668 seconds.

tnom = 27
temp = 27
method = modified trap
totiter = 994878
traniter = 994872
tranpoints = 246330
accept = 231401
rejected = 14932
matrix size = 178
fillins = 223
solver = Normal
Avg thread counts: 1.0/1.0/1.0/1.0
Matrix Compiler1: 22.83 KB object code size  4.1/2.1/[1.0]
Matrix Compiler2: 19.33 KB object code size  1.7/2.1/[0.8]

