Circuit: * C:\Users\dinod\Desktop\Audio amplifier & power supply\Simulation\Amplifier\Output stage\V1 THD.asc

Warning: Multiple definitions of model "2scr375p" Type: BJT
Warning: Multiple definitions of model "bc857b" Type: BJT
Warning: Multiple definitions of model "bc847c" Type: BJT
Warning: Multiple definitions of model "bc847b" Type: BJT
Direct Newton iteration for .op point succeeded.
Heightened Def Con from 7.24148e-05 to 7.24151e-05
Heightened Def Con from 7.24171e-05 to 7.24201e-05
Heightened Def Con from 7.90498e-05 to 7.90518e-05
Heightened Def Con from 7.93458e-05 +to 7.93478e-05
Heightened Def Con from 7.93824e-05 to 7.93834e-05
Heightened Def Con from 7.93946e-05 to 7.93978e-05
Heightened Def Con from 0.000179292 +++to 0.000179292
Heightened Def Con from 0.000179356 ++++++++++++++++++++++to 0.000179356
Heightened Def Con from 0.000179356 to 0.000179358
Heightened Def Con from 0.000179389 +to 0.000179392
Heightened Def Con from 0.000179394 to 0.000179394
Heightened Def Con from 0.000179394 to 0.000179397
Heightened Def Con from 0.00027936 +to 0.000279362
Heightened Def Con from 0.000279392 to 0.000279393
Heightened Def Con from 0.000379161 to 0.000379163
Heightened Def Con from 0.000379345 to 0.000379345
Heightened Def Con from 0.000379345 to 0.000379347
Heightened Def Con from 0.000379382 +++++++++++++++++++to 0.000379385
Heightened Def Con from 0.000379395 to 0.000379397
Heightened Def Con from 0.000379397 to 0.000379401
Heightened Def Con from 0.000472416 to 0.000472416
Heightened Def Con from 0.000479322 +to 0.000479323
Heightened Def Con from 0.000479366 to 0.000479369
Heightened Def Con from 0.000479383 +++to 0.000479386
Heightened Def Con from 0.000479392 +to 0.000479395
Heightened Def Con from 0.000579183 to 0.000579184
Heightened Def Con from 0.000579312 to 0.000579312
Heightened Def Con from 0.000579376 +++++++++++++++++to 0.000579379
Heightened Def Con from 0.000579394 to 0.000579397
Heightened Def Con from 0.000679356 +++to 0.000679358
Heightened Def Con from 0.000679389 to 0.00067939
Heightened Def Con from 0.000679394 to 0.000679398
Heightened Def Con from 0.000772415 to 0.000772415
Heightened Def Con from 0.000779118 to 0.00077912
Heightened Def Con from 0.000779372 to 0.000779372
Heightened Def Con from 0.000779372 to 0.000779375
Heightened Def Con from 0.000779389 to 0.000779392
Heightened Def Con from 0.000779394 to 0.000779397
Heightened Def Con from 0.000779397 to 0.000779401
Heightened Def Con from 0.000879185 to 0.000879186
Heightened Def Con from 0.000879313 +to 0.000879314
Heightened Def Con from 0.000879382 to 0.000879383
Heightened Def Con from 0.000879394 +to 0.000879397
Heightened Def Con from 0.000879397 to 0.000879401
Heightened Def Con from 0.000979357 +to 0.000979359
Heightened Def Con from 0.000979389 to 0.00097939
Heightened Def Con from 0.00107935 to 0.00107935
Heightened Def Con from 0.00107935 to 0.00107935
Heightened Def Con from 0.00107939 ++++++to 0.00107939
Heightened Def Con from 0.00107939 to 0.0010794
Heightened Def Con from 0.0010794 to 0.0010794
Heightened Def Con from 0.00117243 to 0.00117243
Heightened Def Con from 0.0011792 to 0.0011792
Heightened Def Con from 0.00117932 to 0.00117932
Heightened Def Con from 0.00117932 to 0.00117933
Heightened Def Con from 0.00117937 ++++++++++++++++++++++++++++to 0.00117937
Heightened Def Con from 0.00127938 +to 0.00127939
Heightened Def Con from 0.00127939 to 0.00127939
Heightened Def Con from 0.00127939 to 0.00127939
Heightened Def Con from 0.00137938 +to 0.00137938
Heightened Def Con from 0.00137939 to 0.0013794
Heightened Def Con from 0.00147918 to 0.00147918
Heightened Def Con from 0.00147931 to 0.00147931
Heightened Def Con from 0.00147931 to 0.00147931
Heightened Def Con from 0.00147936 ++++++++++++++++++++++++++++to 0.00147936
Heightened Def Con from 0.00147941 +to 0.00147941
Heightened Def Con from 0.00147941 to 0.00147942
Heightened Def Con from 0.00157936 +++++++++++++++++++++++++++++++to 0.00157936
Heightened Def Con from 0.00157936 to 0.00157936
Heightened Def Con from 0.00157944 +++++++to 0.00157944
Heightened Def Con from 0.00167932 +to 0.00167932
Heightened Def Con from 0.00167938 to 0.00167938
Heightened Def Con from 0.0016794 to 0.0016794
Heightened Def Con from 0.00177935 +to 0.00177935
Heightened Def Con from 0.00177938 +++to 0.00177939
Heightened Def Con from 0.00177939 to 0.0017794
Heightened Def Con from 0.00187242 to 0.00187242
Heightened Def Con from 0.00187902 to 0.00187902
Heightened Def Con from 0.00187938 +to 0.00187938
Heightened Def Con from 0.00187939 to 0.00187939
Heightened Def Con from 0.0018794 to 0.0018794
Heightened Def Con from 0.00197242 to 0.00197242
Heightened Def Con from 0.00197939 +to 0.00197939
Heightened Def Con from 0.00207938 +to 0.00207939
Heightened Def Con from 0.00207939 to 0.0020794
Heightened Def Con from 0.00217919 to 0.00217919
Heightened Def Con from 0.00217931 +to 0.00217932
Heightened Def Con from 0.00217936 ++++++++++++++++++++++++++++to 0.00217936
Heightened Def Con from 0.00227934 +to 0.00227934
Heightened Def Con from 0.00227938 ++++++++++++++++++++++to 0.00227938
Heightened Def Con from 0.00227939 to 0.00227939
Heightened Def Con from 0.00227939 to 0.00227939
Heightened Def Con from 0.00237937 ++++++++++++++++++++++++++++to 0.00237937
Heightened Def Con from 0.00237942 to 0.00237942
Heightened Def Con from 0.00247919 to 0.00247919
Heightened Def Con from 0.00247932 to 0.00247932
Heightened Def Con from 0.00247932 to 0.00247932
Heightened Def Con from 0.00247936 to 0.00247936
Heightened Def Con from 0.00247939 to 0.0024794
Heightened Def Con from 0.00257936 ++++++++++++++++++++++++++++to 0.00257937
Heightened Def Con from 0.00257941 to 0.00257942
Heightened Def Con from 0.00267939 to 0.00267939
Heightened Def Con from 0.00267939 to 0.0026794
Heightened Def Con from 0.00277917 to 0.00277917
Heightened Def Con from 0.00277936 +to 0.00277936
Heightened Def Con from 0.00277939 +++++++++++++++++++++++to 0.00277939
Heightened Def Con from 0.00287919 to 0.00287919
Heightened Def Con from 0.00287932 +to 0.00287932
Heightened Def Con from 0.00287936 to 0.00287936
Heightened Def Con from 0.00287939 to 0.0028794
Heightened Def Con from 0.00297931 +to 0.00297931
Heightened Def Con from 0.00297936 +++++++++++++++++++++++++++++to 0.00297936
Heightened Def Con from 0.00297942 to 0.00297942
Heightened Def Con from 0.00307915 to 0.00307916
Heightened Def Con from 0.00307935 +to 0.00307935
Heightened Def Con from 0.00307939 +++++++++++++++++to 0.00307939
Heightened Def Con from 0.0030794 to 0.0030794
Heightened Def Con from 0.00317242 to 0.00317242
Heightened Def Con from 0.00317918 to 0.00317919
Heightened Def Con from 0.00317931 +to 0.00317931
Heightened Def Con from 0.00317936 +++++++++++++++++++++++++++++to 0.00317936
Heightened Def Con from 0.00327936 +to 0.00327936
Heightened Def Con from 0.00327939 to 0.00327939
Heightened Def Con from 0.00337936 ++++++++++++++++++++++++++++to 0.00337936
Heightened Def Con from 0.00337941 to 0.00337942
Heightened Def Con from 0.00347938 +++++++++++++++++++to 0.00347938
Heightened Def Con from 0.00357916 to 0.00357916
Heightened Def Con from 0.00357934 +to 0.00357934
Heightened Def Con from 0.00357938 to 0.00357938
Heightened Def Con from 0.0035794 to 0.0035794
Heightened Def Con from 0.00367242 to 0.00367242
Heightened Def Con from 0.00367242 to 0.00367242
Heightened Def Con from 0.00367939 +to 0.00367939
Heightened Def Con from 0.00367939 to 0.00367939
Heightened Def Con from 0.00377919 to 0.00377919
Heightened Def Con from 0.00377931 +to 0.00377932
Heightened Def Con from 0.00377936 ++to 0.00377936
Heightened Def Con from 0.00377939 to 0.00377939
Heightened Def Con from 0.0037794 to 0.0037794
Heightened Def Con from 0.00387933 to 0.00387933
Heightened Def Con from 0.00387933 to 0.00387933
Heightened Def Con from 0.00387937 ++to 0.00387937
Heightened Def Con from 0.00387939 +++to 0.00387939
Heightened Def Con from 0.00387939 to 0.0038794
Heightened Def Con from 0.00397932 +to 0.00397932
Heightened Def Con from 0.00397936 ++++++++++++++++++++++++++++to 0.00397936
Heightened Def Con from 0.00397941 to 0.00397941
Heightened Def Con from 0.00407241 +to 0.00407241
Heightened Def Con from 0.00407938 +to 0.00407938
Heightened Def Con from 0.0040794 to 0.0040794
Heightened Def Con from 0.00417919 to 0.00417919
Heightened Def Con from 0.00417931 +to 0.00417932
Heightened Def Con from 0.00417936 ++++++++++++++++++++++++++++to 0.00417936
Heightened Def Con from 0.00427938 to 0.00427938
Heightened Def Con from 0.0042794 to 0.0042794
Heightened Def Con from 0.00437241 +to 0.00437241
Heightened Def Con from 0.00437936 ++++++++++++++++++++++++++++to 0.00437936
Heightened Def Con from 0.00447926 to 0.00447926
Heightened Def Con from 0.00447938 to 0.00447938
Heightened Def Con from 0.00447939 +++to 0.00447939
Heightened Def Con from 0.0044794 to 0.0044794
Heightened Def Con from 0.00457241 to 0.00457241
Heightened Def Con from 0.00457924 +++++++++++++++++++++++to 0.00457924
Heightened Def Con from 0.00457934 +++++++++++++++++++++++++++++to 0.00457935
Heightened Def Con from 0.00467905 to 0.00467905
Heightened Def Con from 0.00467934 +++++++++++++++++++++++++++++to 0.00467934
Heightened Def Con from 0.00477931 to 0.00477931
Heightened Def Con from 0.00477931 to 0.00477931
Heightened Def Con from 0.00477935 ++++++++++++++++++++++++++++to 0.00477936
Heightened Def Con from 0.00487938 ++++++++++++++++++++++++++to 0.00487939
Heightened Def Con from 0.00487941 to 0.00487941
Heightened Def Con from 0.00497931 +to 0.00497931
Heightened Def Con from 0.00497936 ++++++++++++++++++++++++++++to 0.00497936
Heightened Def Con from 0.00507919 to 0.00507919
Heightened Def Con from 0.00507932 +to 0.00507932
Heightened Def Con from 0.00507936 ++++++++++++++++++++++++++++to 0.00507936
Heightened Def Con from 0.00507939 to 0.00507939
Heightened Def Con from 0.00517242 +to 0.00517242
Heightened Def Con from 0.00517242 to 0.00517242
Heightened Def Con from 0.00517939 +to 0.00517939
Heightened Def Con from 0.00527905 to 0.00527905
Heightened Def Con from 0.00527936 to 0.00527936
Heightened Def Con from 0.00527936 to 0.00527936
Heightened Def Con from 0.00527939 +to 0.00527939
Heightened Def Con from 0.00527939 to 0.00527939
Heightened Def Con from 0.00527939 to 0.0052794
Heightened Def Con from 0.00537919 to 0.00537919
Heightened Def Con from 0.00537932 +to 0.00537932
Heightened Def Con from 0.00537936 to 0.00537936
Heightened Def Con from 0.0053794 to 0.0053794
Heightened Def Con from 0.00547938 +to 0.00547938
Heightened Def Con from 0.00547939 to 0.0054794
Heightened Def Con from 0.00557936 ++++++++++++++++++++++++++++to 0.00557936
Heightened Def Con from 0.00567934 +to 0.00567934
Heightened Def Con from 0.00567938 +++to 0.00567938
Heightened Def Con from 0.00567939 to 0.0056794
Heightened Def Con from 0.0056794 to 0.0056794
Heightened Def Con from 0.00577933 +to 0.00577933
Heightened Def Con from 0.00577933 to 0.00577934
Heightened Def Con from 0.00577937 to 0.00577938
Heightened Def Con from 0.00577939 to 0.00577939
Heightened Def Con from 0.00577939 to 0.0057794
Heightened Def Con from 0.00587242 to 0.00587242
Heightened Def Con from 0.00587939 to 0.00587939
Heightened Def Con from 0.00597242 to 0.00597242
Heightened Def Con from 0.00597919 to 0.00597919
Heightened Def Con from 0.00597931 +to 0.00597932
Heightened Def Con from 0.00597936 ++++++++++++++++++++++++++++to 0.00597936
Heightened Def Con from 0.00607935 to 0.00607936
Heightened Def Con from 0.00607939 to 0.00607939
Heightened Def Con from 0.00607939 +to 0.00607939
Heightened Def Con from 0.00607939 to 0.0060794
Heightened Def Con from 0.00617932 to 0.00617932
Heightened Def Con from 0.00617936 to 0.00617936
Heightened Def Con from 0.00617939 to 0.0061794
Heightened Def Con from 0.00627913 to 0.00627913
Heightened Def Con from 0.00627937 +to 0.00627937
Heightened Def Con from 0.00627938 ++++++++++++++++to 0.00627939
Heightened Def Con from 0.00627939 to 0.0062794
Heightened Def Con from 0.0062794 to 0.0062794
Heightened Def Con from 0.00637932 to 0.00637932
Heightened Def Con from 0.00637938 to 0.00637939
Heightened Def Con from 0.00637939 ++to 0.00637939
Heightened Def Con from 0.00637939 to 0.00637939
Heightened Def Con from 0.00647934 +to 0.00647934
Heightened Def Con from 0.00647938 +++++++++++++++++++++++to 0.00647938
Heightened Def Con from 0.0064794 to 0.0064794
Heightened Def Con from 0.00657919 to 0.0065792
Heightened Def Con from 0.00657932 +to 0.00657932
Heightened Def Con from 0.00657937 ++++++++++++++++++++++++++++to 0.00657937
Heightened Def Con from 0.00657942 to 0.00657942
Heightened Def Con from 0.00667244 to 0.00667244
Heightened Def Con from 0.00667914 to 0.00667914
Heightened Def Con from 0.00667937 +to 0.00667938
Heightened Def Con from 0.00667939 to 0.00667939
Heightened Def Con from 0.00667939 to 0.00667939
Heightened Def Con from 0.00677242 to 0.00677242
Heightened Def Con from 0.00677936 ++++++++++++++++++++++++++++to 0.00677936
Heightened Def Con from 0.00677941 to 0.00677942
Heightened Def Con from 0.00687929 to 0.00687929
Heightened Def Con from 0.00687938 to 0.00687938
Heightened Def Con from 0.0068794 to 0.0068794
Heightened Def Con from 0.00697241 +to 0.00697242
Heightened Def Con from 0.00697935 to 0.00697935
Heightened Def Con from 0.00697935 to 0.00697935
Heightened Def Con from 0.00697939 to 0.00697939
Heightened Def Con from 0.00707935 +to 0.00707935
Heightened Def Con from 0.00707938 to 0.00707938
Heightened Def Con from 0.00707938 to 0.00707939
Heightened Def Con from 0.00707939 to 0.0070794
Heightened Def Con from 0.00717242 to 0.00717242
Heightened Def Con from 0.00717926 to 0.00717926
Heightened Def Con from 0.00717938 to 0.00717938
Heightened Def Con from 0.00717939 +++++++++++++++++++++++to 0.00717939
Heightened Def Con from 0.00717939 to 0.00717939
Heightened Def Con from 0.00727919 to 0.0072792
Heightened Def Con from 0.00727932 to 0.00727932
Heightened Def Con from 0.00727932 to 0.00727932
Heightened Def Con from 0.00727937 to 0.00727937
Heightened Def Con from 0.00727938 +++++++++++++++to 0.00727939
Heightened Def Con from 0.00727939 ++to 0.00727939
Heightened Def Con from 0.0072794 to 0.0072794
Heightened Def Con from 0.00737242 to 0.00737242
Heightened Def Con from 0.00737932 to 0.00737932
Heightened Def Con from 0.00737936 ++++++++++++++++++++++++++++to 0.00737937
Heightened Def Con from 0.00747935 to 0.00747935
Heightened Def Con from 0.00747938 +to 0.00747939
Heightened Def Con from 0.00747939 +to 0.00747939
Heightened Def Con from 0.00757241 to 0.00757241
Heightened Def Con from 0.00757927 to 0.00757928
Heightened Def Con from 0.00757939 to 0.00757939
Heightened Def Con from 0.00757939 +to 0.0075794
Heightened Def Con from 0.00767242 to 0.00767242
Heightened Def Con from 0.00767932 +to 0.00767932
Heightened Def Con from 0.00767936 to 0.00767936
Heightened Def Con from 0.00777936 +to 0.00777936
Heightened Def Con from 0.00777936 to 0.00777936
Heightened Def Con from 0.00777939 to 0.00777939
Heightened Def Con from 0.0077794 to 0.0077794
Heightened Def Con from 0.00787934 to 0.00787934
Heightened Def Con from 0.00787934 to 0.00787934
Heightened Def Con from 0.00787938 ++++++++++++to 0.00787938
Heightened Def Con from 0.00787939 to 0.00787939
Heightened Def Con from 0.00797242 +to 0.00797242
Heightened Def Con from 0.00797919 to 0.00797919
Heightened Def Con from 0.00797932 to 0.00797932
Heightened Def Con from 0.00797932 to 0.00797932
Heightened Def Con from 0.00797936 to 0.00797936
Heightened Def Con from 0.00797939 to 0.0079794
Heightened Def Con from 0.0079794 to 0.0079794
Heightened Def Con from 0.00807241 to 0.00807241
Heightened Def Con from 0.00807938 to 0.00807938
Heightened Def Con from 0.00807939 to 0.0080794
Heightened Def Con from 0.00817242 to 0.00817242
Heightened Def Con from 0.00817939 +to 0.0081794
Heightened Def Con from 0.00827919 to 0.0082792
Heightened Def Con from 0.00827932 to 0.00827932
Heightened Def Con from 0.00827932 to 0.00827932
Heightened Def Con from 0.00827937 to 0.00827937
Heightened Def Con from 0.00827937 to 0.00827937
Heightened Def Con from 0.00827938 +++++++++++++++++++to 0.00827939
Heightened Def Con from 0.00837936 +to 0.00837936
Heightened Def Con from 0.00837939 to 0.00837939
Heightened Def Con from 0.0083794 to 0.0083794
Heightened Def Con from 0.00847934 +to 0.00847934
Heightened Def Con from 0.00847938 ++++++++++++++++++++++to 0.00847938
Heightened Def Con from 0.00847938 to 0.00847938
Heightened Def Con from 0.00847939 to 0.0084794
Heightened Def Con from 0.00857919 to 0.0085792
Heightened Def Con from 0.00857932 to 0.00857932
Heightened Def Con from 0.00857932 to 0.00857932
Heightened Def Con from 0.00857937 ++++++++++++++++++++++++++++to 0.00857937
Heightened Def Con from 0.00857941 to 0.00857942
Heightened Def Con from 0.00867935 +++++++++++++++++++++++++++++to 0.00867936
Heightened Def Con from 0.00867942 to 0.00867942
Heightened Def Con from 0.00877934 +++++++++++++++++++++++++++++to 0.00877934
Heightened Def Con from 0.00887241 +to 0.00887241
Heightened Def Con from 0.00887936 ++++++++++++++++++++++++++++to 0.00887936
Heightened Def Con from 0.0088794 to 0.0088794
Heightened Def Con from 0.00897938 to 0.00897939
Heightened Def Con from 0.00897939 to 0.0089794
Heightened Def Con from 0.00907919 to 0.00907919
Heightened Def Con from 0.00907932 to 0.00907932
Heightened Def Con from 0.00907932 to 0.00907932
Heightened Def Con from 0.00907936 ++++++++++++++++++++++++++++to 0.00907936
Heightened Def Con from 0.00907941 to 0.00907942
Heightened Def Con from 0.00917241 to 0.00917241
Heightened Def Con from 0.00917939 +to 0.00917939
Heightened Def Con from 0.00917939 to 0.0091794
Heightened Def Con from 0.00927242 to 0.00927242
Heightened Def Con from 0.00927934 to 0.00927934
Heightened Def Con from 0.00927937 +++++++++++++to 0.00927937
Heightened Def Con from 0.00927937 to 0.00927938
Heightened Def Con from 0.00927939 ++to 0.00927939
Heightened Def Con from 0.00927939 to 0.00927939
Heightened Def Con from 0.0092794 to 0.0092794
Heightened Def Con from 0.00937932 +to 0.00937932
Heightened Def Con from 0.00937936 ++++++++++++++++++++++++++++to 0.00937937
Heightened Def Con from 0.00947934 to 0.00947934
Heightened Def Con from 0.00947934 to 0.00947934
Heightened Def Con from 0.00947938 +++++++++++++++++++++++++++to 0.00947938
Heightened Def Con from 0.00957243 to 0.00957244
Heightened Def Con from 0.00957933 +to 0.00957933
Heightened Def Con from 0.00957937 to 0.00957938
Heightened Def Con from 0.00957939 ++to 0.00957939
Heightened Def Con from 0.00957939 to 0.0095794
Heightened Def Con from 0.00967241 to 0.00967241
Heightened Def Con from 0.00967919 to 0.00967919
Heightened Def Con from 0.00967931 +to 0.00967932
Heightened Def Con from 0.00967936 ++++++++++++++++++++++++++++to 0.00967936
Heightened Def Con from 0.00977241 to 0.00977241
Heightened Def Con from 0.00977919 to 0.00977919
Heightened Def Con from 0.00977932 +to 0.00977932
Heightened Def Con from 0.00977936 ++++++++++++++++++++++++++++to 0.00977937
Heightened Def Con from 0.00987241 to 0.00987241
Heightened Def Con from 0.00987243 to 0.00987244
Heightened Def Con from 0.00987936 ++++++++++++++++++++++++++++to 0.00987936
Heightened Def Con from 0.0098794 to 0.0098794
Heightened Def Con from 0.00997242 to 0.00997242
Heightened Def Con from 0.00997919 to 0.00997919
Heightened Def Con from 0.00997932 +to 0.00997932
Heightened Def Con from 0.00997936 to 0.00997936
Heightened Def Con from 0.00997936 to 0.00997936
Heightened Def Con from 0.00997939 to 0.00997939
Heightened Def Con from 0.0100792 to 0.0100792
Heightened Def Con from 0.0100793 +to 0.0100793
Heightened Def Con from 0.0100794 ++++++++++++++to 0.0100794
Heightened Def Con from 0.0100794 to 0.0100794
Heightened Def Con from 0.0100794 to 0.0100794
Heightened Def Con from 0.0101724 to 0.0101724
Heightened Def Con from 0.0101792 to 0.0101792
Heightened Def Con from 0.0101793 +to 0.0101793
Heightened Def Con from 0.0101794 ++++++++++++++++++++++to 0.0101794
Heightened Def Con from 0.0101794 to 0.0101794
Heightened Def Con from 0.0102794 to 0.0102794
Heightened Def Con from 0.0102794 to 0.0102794
Heightened Def Con from 0.0102794 to 0.0102794
Heightened Def Con from 0.0102794 to 0.0102794
Heightened Def Con from 0.0102794 to 0.0102794
Heightened Def Con from 0.0103792 to 0.0103792
Heightened Def Con from 0.0103793 +to 0.0103793
Heightened Def Con from 0.0103794 ++++++++++++++++++++++++++++to 0.0103794
Heightened Def Con from 0.0103794 to 0.0103794
Heightened Def Con from 0.0104794 ++++++++++++++++++++++++++++to 0.0104794
Heightened Def Con from 0.0104794 to 0.0104794
Heightened Def Con from 0.0104794 to 0.0104794
Heightened Def Con from 0.0105794 to 0.0105794
Heightened Def Con from 0.0105794 to 0.0105794
Heightened Def Con from 0.0105794 to 0.0105794
Heightened Def Con from 0.0106794 to 0.0106794
Heightened Def Con from 0.0106794 to 0.0106794
Heightened Def Con from 0.0106794 ++++++++++++++++++++++to 0.0106794
Heightened Def Con from 0.0107792 to 0.0107792
Heightened Def Con from 0.0107794 +to 0.0107794
Heightened Def Con from 0.0107794 to 0.0107794
Heightened Def Con from 0.0108794 +to 0.0108794
Heightened Def Con from 0.0108794 to 0.0108794
Heightened Def Con from 0.0109794 +++++++++++++++++++++++to 0.0109794
Heightened Def Con from 0.0109794 to 0.0109794
Heightened Def Con from 0.0109794 to 0.0109794
Heightened Def Con from 0.0110793 +++++++++++++++++++++++to 0.0110793
Heightened Def Con from 0.0110794 +to 0.0110794
Heightened Def Con from 0.0110794 to 0.0110794
Heightened Def Con from 0.0110794 to 0.0110794
Heightened Def Con from 0.0110794 to 0.0110794
Heightened Def Con from 0.0111724 to 0.0111724
Heightened Def Con from 0.0111793 to 0.0111793
Heightened Def Con from 0.0111794 ++++++++++++++++++++++++++++to 0.0111794
Heightened Def Con from 0.0112724 to 0.0112724
Heightened Def Con from 0.0112794 to 0.0112794
Heightened Def Con from 0.0112794 to 0.0112794
Heightened Def Con from 0.0113792 to 0.0113792
Heightened Def Con from 0.0113793 to 0.0113793
Heightened Def Con from 0.0113793 to 0.0113793
Heightened Def Con from 0.0113794 ++++++++to 0.0113794
Heightened Def Con from 0.0113794 to 0.0113794
Heightened Def Con from 0.0113794 to 0.0113794
Heightened Def Con from 0.0114792 to 0.0114792
Heightened Def Con from 0.0114793 +to 0.0114793
Heightened Def Con from 0.0114794 ++to 0.0114794
Heightened Def Con from 0.0114794 to 0.0114794
Heightened Def Con from 0.0114794 to 0.0114794
Heightened Def Con from 0.0114794 to 0.0114794
Heightened Def Con from 0.0115793 to 0.0115793
Heightened Def Con from 0.0115794 ++++++++++++++++++++++to 0.0115794
Heightened Def Con from 0.0115794 +++++++++++++to 0.0115794
Heightened Def Con from 0.0115794 to 0.0115794
Heightened Def Con from 0.0116724 to 0.0116724
Heightened Def Con from 0.0116793 to 0.0116793
Heightened Def Con from 0.0116793 ++to 0.0116793
Heightened Def Con from 0.0116794 ++to 0.0116794
Heightened Def Con from 0.0116794 to 0.0116794
Heightened Def Con from 0.0116794 +to 0.0116794
Heightened Def Con from 0.0117724 to 0.0117724
Heightened Def Con from 0.0117724 to 0.0117724
Heightened Def Con from 0.0117793 +to 0.0117793
Heightened Def Con from 0.0117794 to 0.0117794
Heightened Def Con from 0.0117794 to 0.0117794
Heightened Def Con from 0.0118792 to 0.0118792
Heightened Def Con from 0.0118793 +to 0.0118793
Heightened Def Con from 0.0118794 +++++++++++++++++++++to 0.0118794
Heightened Def Con from 0.0118794 ++to 0.0118794
Heightened Def Con from 0.0118794 to 0.0118794
Heightened Def Con from 0.0118794 ++++++++++++++++++++++++to 0.0118794
Heightened Def Con from 0.0118794 +to 0.0118794
Heightened Def Con from 0.0118794 to 0.0118794
Heightened Def Con from 0.0119724 +to 0.0119724
Heightened Def Con from 0.0119794 +to 0.0119794
Heightened Def Con from 0.0119794 to 0.0119794
Heightened Def Con from 0.0119794 to 0.0119794
Heightened Def Con from 0.0120794 to 0.0120794
Heightened Def Con from 0.0120794 to 0.0120794
Heightened Def Con from 0.0120794 ++++++++++++++++++++++to 0.0120794
Heightened Def Con from 0.0120794 to 0.0120794
Heightened Def Con from 0.0120794 to 0.0120794
Heightened Def Con from 0.0120794 to 0.0120794
Heightened Def Con from 0.0121791 to 0.0121791
Heightened Def Con from 0.0121794 +to 0.0121794
Heightened Def Con from 0.0121794 +++++++++++++++++++++++++++to 0.0121794
Heightened Def Con from 0.0122724 to 0.0122724
Heightened Def Con from 0.0122793 to 0.0122793
Heightened Def Con from 0.0122793 to 0.0122793
Heightened Def Con from 0.0122794 to 0.0122794
Heightened Def Con from 0.0122794 to 0.0122794
Heightened Def Con from 0.0123793 to 0.0123793
Heightened Def Con from 0.0123794 +to 0.0123794
Heightened Def Con from 0.0123794 to 0.0123794
Heightened Def Con from 0.0123794 +to 0.0123794
Heightened Def Con from 0.0123794 to 0.0123794
Heightened Def Con from 0.0123794 to 0.0123794
Heightened Def Con from 0.0124724 +to 0.0124724
Heightened Def Con from 0.0124724 to 0.0124724
Heightened Def Con from 0.0124794 +to 0.0124794
Heightened Def Con from 0.0124794 to 0.0124794
Heightened Def Con from 0.0125791 to 0.0125791
Heightened Def Con from 0.0125793 to 0.0125793
Heightened Def Con from 0.0125794 to 0.0125794
Heightened Def Con from 0.0125794 ++++++++++++++++++++++++++to 0.0125794
Heightened Def Con from 0.0126724 to 0.0126724
Heightened Def Con from 0.0126794 +++++++++++++++++++++++++++to 0.0126794
Heightened Def Con from 0.0127793 +to 0.0127793
Heightened Def Con from 0.0127794 ++++to 0.0127794
Heightened Def Con from 0.0127794 +to 0.0127794
Heightened Def Con from 0.0128792 to 0.0128792
Heightened Def Con from 0.0128793 +to 0.0128793
Heightened Def Con from 0.0128794 +++++++++++++++++++++to 0.0128794
Heightened Def Con from 0.0128794 ++to 0.0128794
Heightened Def Con from 0.012979 to 0.012979
Heightened Def Con from 0.0129793 +to 0.0129793
Heightened Def Con from 0.0129794 ++++++++++++++++++++++++++++to 0.0129794
Heightened Def Con from 0.0129794 to 0.0129794
Heightened Def Con from 0.0130793 +to 0.0130793
Heightened Def Con from 0.0130794 +to 0.0130794
Heightened Def Con from 0.0130794 to 0.0130794
Heightened Def Con from 0.0130794 to 0.0130794
Heightened Def Con from 0.0130794 to 0.0130794
Heightened Def Con from 0.0131793 to 0.0131793
Heightened Def Con from 0.0131794 to 0.0131794
Heightened Def Con from 0.0131794 to 0.0131794
Heightened Def Con from 0.0132724 to 0.0132724
Heightened Def Con from 0.0132793 to 0.0132793
Heightened Def Con from 0.0132793 to 0.0132793
Heightened Def Con from 0.0132794 to 0.0132794
Heightened Def Con from 0.0132794 to 0.0132794
Heightened Def Con from 0.0133793 +to 0.0133793
Heightened Def Con from 0.0133793 to 0.0133793
Heightened Def Con from 0.0133794 to 0.0133794
Heightened Def Con from 0.0133794 to 0.0133794
Heightened Def Con from 0.0134794 to 0.0134794
Heightened Def Con from 0.0134794 to 0.0134794
Heightened Def Con from 0.0135793 +++++++++++++++++++++++++++to 0.0135793
Heightened Def Con from 0.0135794 ++++++++++++++++++++++++++++to 0.0135794
Heightened Def Con from 0.0135794 to 0.0135794
Heightened Def Con from 0.0136724 to 0.0136724
Heightened Def Con from 0.0136793 +to 0.0136793
Heightened Def Con from 0.0136794 +++++++++++++++++++++++++++to 0.0136794
Heightened Def Con from 0.0136794 to 0.0136794
Heightened Def Con from 0.0137793 to 0.0137793
Heightened Def Con from 0.0137794 to 0.0137794
Heightened Def Con from 0.0137794 ++++++++++++++++++++to 0.0137794
Heightened Def Con from 0.0138724 to 0.0138724
Heightened Def Con from 0.0138794 +to 0.0138794
Heightened Def Con from 0.0138794 +++++++++++++++++++to 0.0138794
Heightened Def Con from 0.0138794 to 0.0138794
Heightened Def Con from 0.0139793 to 0.0139793
Heightened Def Con from 0.0139794 +to 0.0139794
Heightened Def Con from 0.0139794 to 0.0139794
Heightened Def Con from 0.0140724 +to 0.0140724
Heightened Def Con from 0.0140794 ++++++++++++++++++++++++++++to 0.0140794
Heightened Def Con from 0.0141793 +to 0.0141793
Heightened Def Con from 0.0141794 ++++++++++++++++++++++++++++to 0.0141794
Heightened Def Con from 0.0142793 +to 0.0142793
Heightened Def Con from 0.0142794 to 0.0142794
Heightened Def Con from 0.0142794 to 0.0142794
Heightened Def Con from 0.0142794 to 0.0142794
Heightened Def Con from 0.0143724 to 0.0143724
Heightened Def Con from 0.0143793 to 0.0143793
Heightened Def Con from 0.0143793 to 0.0143793
Heightened Def Con from 0.0143794 to 0.0143794
Heightened Def Con from 0.0144794 +to 0.0144794
Heightened Def Con from 0.0144794 to 0.0144794
Heightened Def Con from 0.0144794 to 0.0144794
Heightened Def Con from 0.0145793 +to 0.0145793
Heightened Def Con from 0.0145794 +++++++++++++++++++to 0.0145794
Heightened Def Con from 0.0145794 to 0.0145794
Heightened Def Con from 0.0145794 +++to 0.0145794
Heightened Def Con from 0.0146793 to 0.0146793
Heightened Def Con from 0.0146793 to 0.0146793
Heightened Def Con from 0.0146794 ++to 0.0146794
Heightened Def Con from 0.0146794 to 0.0146794
Heightened Def Con from 0.0146794 +++++++++++++++++++++++++to 0.0146794
Heightened Def Con from 0.0147793 +to 0.0147793
Heightened Def Con from 0.0147794 ++++++++++++++++++++++to 0.0147794
Heightened Def Con from 0.0147794 to 0.0147794
Heightened Def Con from 0.0148792 to 0.0148792
Heightened Def Con from 0.0148793 +to 0.0148793
Heightened Def Con from 0.0148794 to 0.0148794
Heightened Def Con from 0.0148794 +to 0.0148794
Heightened Def Con from 0.0148794 to 0.0148794
Heightened Def Con from 0.0148794 to 0.0148794
Heightened Def Con from 0.014979 to 0.014979
Heightened Def Con from 0.0149793 +to 0.0149793
Heightened Def Con from 0.0149794 ++to 0.0149794
Heightened Def Con from 0.0149794 to 0.0149794
Heightened Def Con from 0.0149794 to 0.0149794
Heightened Def Con from 0.0149794 to 0.0149794
Heightened Def Con from 0.015079 to 0.015079
Heightened Def Con from 0.0150793 +to 0.0150793
Heightened Def Con from 0.0150794 +++++++++++++to 0.0150794
Heightened Def Con from 0.0150794 to 0.0150794
Heightened Def Con from 0.0150794 +to 0.0150794
Heightened Def Con from 0.0151724 to 0.0151724
Heightened Def Con from 0.0151724 to 0.0151724
Heightened Def Con from 0.0151793 to 0.0151793
Heightened Def Con from 0.0151794 ++to 0.0151794
Heightened Def Con from 0.0151794 to 0.0151794
Heightened Def Con from 0.0152724 to 0.0152724
Heightened Def Con from 0.0152793 +to 0.0152793
Heightened Def Con from 0.0152794 ++to 0.0152794
Heightened Def Con from 0.0152794 to 0.0152794
Heightened Def Con from 0.0152794 to 0.0152794
Heightened Def Con from 0.0153793 to 0.0153793
Heightened Def Con from 0.0153794 +++++++++++++++++to 0.0153794
Heightened Def Con from 0.0153794 to 0.0153794
Heightened Def Con from 0.0153794 +++++++++++++++++++++++to 0.0153794
Heightened Def Con from 0.0153794 to 0.0153794
Heightened Def Con from 0.0153794 to 0.0153794
Heightened Def Con from 0.0153794 to 0.0153794
Heightened Def Con from 0.0154724 to 0.0154724
Heightened Def Con from 0.0154724 to 0.0154724
Heightened Def Con from 0.0154793 to 0.0154793
Heightened Def Con from 0.0154794 to 0.0154794
Heightened Def Con from 0.0154794 to 0.0154794
Heightened Def Con from 0.0155724 to 0.0155724
Heightened Def Con from 0.0155794 +++++++++++++++++++to 0.0155794
Heightened Def Con from 0.0155794 to 0.0155794
Heightened Def Con from 0.0155794 to 0.0155794
Heightened Def Con from 0.0155794 to 0.0155794
Heightened Def Con from 0.0156724 to 0.0156724
Heightened Def Con from 0.0156793 to 0.0156793
Heightened Def Con from 0.0156794 to 0.0156794
Heightened Def Con from 0.0156794 to 0.0156794
Heightened Def Con from 0.015779 to 0.015779
Heightened Def Con from 0.0157793 +to 0.0157793
Heightened Def Con from 0.0157794 ++++++++++++++++++++++to 0.0157794
Heightened Def Con from 0.0158794 +to 0.0158794
Heightened Def Con from 0.0158794 to 0.0158794
Heightened Def Con from 0.0158794 to 0.0158794
Heightened Def Con from 0.0159794 +to 0.0159794
Heightened Def Con from 0.0159794 to 0.0159794
Heightened Def Con from 0.0159794 to 0.0159794
Heightened Def Con from 0.0159794 to 0.0159794
Heightened Def Con from 0.0160794 +++++++++++++++++++++to 0.0160794
Heightened Def Con from 0.0161792 to 0.0161792
Heightened Def Con from 0.0161793 +to 0.0161793
Heightened Def Con from 0.0161794 ++++++++++++++++++++++++++++to 0.0161794
Heightened Def Con from 0.0162794 to 0.0162794
Heightened Def Con from 0.0162794 +to 0.0162794
Heightened Def Con from 0.0162794 to 0.0162794
Heightened Def Con from 0.016379 to 0.016379
Heightened Def Con from 0.0163793 +to 0.0163793
Heightened Def Con from 0.0163794 ++++++++++++++++++++++++to 0.0163794
Heightened Def Con from 0.0164791 to 0.0164791
Heightened Def Con from 0.0164794 ++to 0.0164794
Heightened Def Con from 0.0164794 to 0.0164794
Heightened Def Con from 0.0164794 +++++++++++++++++++++to 0.0164794
Heightened Def Con from 0.0164794 to 0.0164794
Heightened Def Con from 0.0165724 to 0.0165724
Heightened Def Con from 0.0165794 to 0.0165794
Heightened Def Con from 0.0166724 to 0.0166724
Heightened Def Con from 0.0166724 to 0.0166724
Heightened Def Con from 0.0166794 +++++++++++++++++++++++++to 0.0166794
Heightened Def Con from 0.0167794 +to 0.0167794
Heightened Def Con from 0.0167794 to 0.0167794
Heightened Def Con from 0.0167794 to 0.0167794
Heightened Def Con from 0.0168724 to 0.0168724
Heightened Def Con from 0.0168792 to 0.0168792
Heightened Def Con from 0.0168793 +to 0.0168793
Heightened Def Con from 0.0168794 ++++++++++++++++to 0.0168794
Heightened Def Con from 0.0168794 to 0.0168794
Heightened Def Con from 0.0168794 to 0.0168794
Heightened Def Con from 0.0168794 to 0.0168794
Heightened Def Con from 0.0169793 +++to 0.0169793
Heightened Def Con from 0.0169794 to 0.0169794
Heightened Def Con from 0.0169794 to 0.0169794
Heightened Def Con from 0.0170794 to 0.0170794
Heightened Def Con from 0.0170794 to 0.0170794
Heightened Def Con from 0.0171724 to 0.0171724
Heightened Def Con from 0.0171793 +to 0.0171793
Heightened Def Con from 0.0171793 to 0.0171793
Heightened Def Con from 0.0171794 to 0.0171794
Heightened Def Con from 0.0171794 to 0.0171794
Heightened Def Con from 0.0171794 to 0.0171794
Heightened Def Con from 0.0172793 to 0.0172793
Heightened Def Con from 0.0172794 to 0.0172794
Heightened Def Con from 0.0172794 to 0.0172794
Heightened Def Con from 0.0172794 to 0.0172794
Heightened Def Con from 0.0173724 to 0.0173724
Heightened Def Con from 0.0173792 to 0.0173793
Heightened Def Con from 0.0173794 to 0.0173794
Heightened Def Con from 0.0173794 +to 0.0173794
Heightened Def Con from 0.0173794 to 0.0173794
Heightened Def Con from 0.0174793 ++++++++++++++++++++++to 0.0174793
Heightened Def Con from 0.0174793 to 0.0174794
Heightened Def Con from 0.0174794 to 0.0174794
Heightened Def Con from 0.0174794 to 0.0174794
Heightened Def Con from 0.0174794 to 0.0174794
Heightened Def Con from 0.0175794 +to 0.0175794
Heightened Def Con from 0.0175794 +to 0.0175794
Heightened Def Con from 0.0175794 to 0.0175794
Heightened Def Con from 0.0176794 ++++++++++++++++++++++++++++to 0.0176794
Heightened Def Con from 0.0176794 +to 0.0176794
Heightened Def Con from 0.0177792 to 0.0177792
Heightened Def Con from 0.0177793 to 0.0177793
Heightened Def Con from 0.0177793 to 0.0177793
Heightened Def Con from 0.0177794 ++++++++++++++++++++++to 0.0177794
Heightened Def Con from 0.0177794 to 0.0177794
Heightened Def Con from 0.0177794 to 0.0177794
Heightened Def Con from 0.0178724 to 0.0178724
Heightened Def Con from 0.0178794 to 0.0178794
Heightened Def Con from 0.0178794 to 0.0178794
Heightened Def Con from 0.0179724 to 0.0179724
Heightened Def Con from 0.0179794 to 0.0179794
Heightened Def Con from 0.0180793 +to 0.0180793
Heightened Def Con from 0.0180794 +++++++++++++++++++to 0.0180794
Heightened Def Con from 0.0181793 +to 0.0181793
Heightened Def Con from 0.0181794 +++++++++++++++++++to 0.0181794
Heightened Def Con from 0.0181794 to 0.0181794
Heightened Def Con from 0.0182794 ++++++++++++++++++++to 0.0182794
Heightened Def Con from 0.0182794 to 0.0182794
Heightened Def Con from 0.0182794 to 0.0182794
Heightened Def Con from 0.0183724 to 0.0183724
Heightened Def Con from 0.0183793 ++++++++++++++++++++++++to 0.0183793
Heightened Def Con from 0.0183794 to 0.0183794
Heightened Def Con from 0.0184794 ++++++++++++to 0.0184794
Heightened Def Con from 0.0184794 to 0.0184794
Heightened Def Con from 0.0184794 ++++++++++++++++++++to 0.0184794
Heightened Def Con from 0.0184794 to 0.0184794
Heightened Def Con from 0.0185724 to 0.0185724
Heightened Def Con from 0.018579 to 0.018579
Heightened Def Con from 0.0185794 ++to 0.0185794
Heightened Def Con from 0.0185794 to 0.0185794
Heightened Def Con from 0.0185794 to 0.0185794
Heightened Def Con from 0.0185794 to 0.0185794
Heightened Def Con from 0.0186793 to 0.0186793
Heightened Def Con from 0.0186794 +to 0.0186794
Heightened Def Con from 0.0186794 to 0.0186794
Heightened Def Con from 0.0187793 to 0.0187793
Heightened Def Con from 0.0187794 ++++++++++++++++++++++++++++to 0.0187794
Heightened Def Con from 0.0188794 to 0.0188794
Heightened Def Con from 0.0188794 +to 0.0188794
Heightened Def Con from 0.0188794 to 0.0188794
Heightened Def Con from 0.0188794 to 0.0188794
Heightened Def Con from 0.0189724 to 0.0189724
Heightened Def Con from 0.0189794 to 0.0189794
Heightened Def Con from 0.0190724 to 0.0190724
Heightened Def Con from 0.0190793 to 0.0190793
Heightened Def Con from 0.0190793 to 0.0190793
Heightened Def Con from 0.0190794 +to 0.0190794
Heightened Def Con from 0.0190794 to 0.0190794
Heightened Def Con from 0.0191724 to 0.0191724
Heightened Def Con from 0.0191792 to 0.0191792
Heightened Def Con from 0.0191793 +to 0.0191793
Heightened Def Con from 0.0191794 +++to 0.0191794
Heightened Def Con from 0.0191794 +++++++++++++++++++++++++to 0.0191794
Heightened Def Con from 0.0191794 to 0.0191794
Heightened Def Con from 0.0191794 to 0.0191794
Heightened Def Con from 0.0192794 ++++++++++++++++++++++++++++to 0.0192794
Heightened Def Con from 0.0193794 +to 0.0193794
Heightened Def Con from 0.0193794 to 0.0193794
Heightened Def Con from 0.0194794 ++++++++++++++++++to 0.0194794
Heightened Def Con from 0.0194794 to 0.0194794
Heightened Def Con from 0.0194794 to 0.0194794
Heightened Def Con from 0.0194794 to 0.0194794
Heightened Def Con from 0.0195793 to 0.0195793
Heightened Def Con from 0.0195794 to 0.0195794
Heightened Def Con from 0.0195794 +++++++++++++++++to 0.0195794
Heightened Def Con from 0.0195794 to 0.0195794
Heightened Def Con from 0.0196724 to 0.0196724
Heightened Def Con from 0.0196724 to 0.0196724
Heightened Def Con from 0.0196794 to 0.0196794
Heightened Def Con from 0.0197794 +to 0.0197794
Heightened Def Con from 0.0197794 to 0.0197794
Heightened Def Con from 0.0197794 to 0.0197794
Heightened Def Con from 0.0198724 to 0.0198724
Heightened Def Con from 0.0198794 to 0.0198794
Heightened Def Con from 0.0199793 to 0.0199793
Heightened Def Con from 0.0199794 +to 0.0199794
Heightened Def Con from 0.0200724 to 0.0200724
Heightened Def Con from 0.0200724 to 0.0200724
Heightened Def Con from 0.0200794 to 0.0200794
Heightened Def Con from 0.0200794 ++to 0.0200794
Heightened Def Con from 0.0200794 to 0.0200794
Heightened Def Con from 0.0200794 to 0.0200794
Heightened Def Con from 0.0201792 to 0.0201792
Heightened Def Con from 0.0201793 to 0.0201793
Heightened Def Con from 0.0201794 +++++++++++++++++++++++++++to 0.0201794
Heightened Def Con from 0.0202793 +to 0.0202793
Heightened Def Con from 0.0202793 ++++++++++++++++++++++++++++to 0.0202794
Heightened Def Con from 0.0202794 +to 0.0202794
Heightened Def Con from 0.0203792 to 0.0203792
Heightened Def Con from 0.0203793 +to 0.0203793
Heightened Def Con from 0.0203794 ++++++++++++++++++++++++++++to 0.0203794
Heightened Def Con from 0.0204724 to 0.0204724
Heightened Def Con from 0.0204793 to 0.0204793
Heightened Def Con from 0.0204794 to 0.0204794
Heightened Def Con from 0.0204794 to 0.0204794
Heightened Def Con from 0.0205724 to 0.0205724
Heightened Def Con from 0.0205794 to 0.0205794
Heightened Def Con from 0.0206724 to 0.0206724
Heightened Def Con from 0.0206724 to 0.0206724
Heightened Def Con from 0.0206794 +to 0.0206794
Heightened Def Con from 0.0206794 ++++++++++++++++++++++++++to 0.0206794
Heightened Def Con from 0.0207793 +to 0.0207793
Heightened Def Con from 0.0207794 ++++++++++++++++++to 0.0207794
Heightened Def Con from 0.0207794 to 0.0207794
Heightened Def Con from 0.0207794 to 0.0207794
Heightened Def Con from 0.0207794 to 0.0207794
Heightened Def Con from 0.0208794 ++to 0.0208794
Heightened Def Con from 0.0208794 +to 0.0208794
Heightened Def Con from 0.0209794 +to 0.0209794
Heightened Def Con from 0.0209794 to 0.0209794
Heightened Def Con from 0.0209794 to 0.0209794
Heightened Def Con from 0.0210794 to 0.0210794
Heightened Def Con from 0.0210794 ++++++++++++++++++++to 0.0210794
Heightened Def Con from 0.0210794 to 0.0210794
Heightened Def Con from 0.0211724 to 0.0211724
Heightened Def Con from 0.0211793 +to 0.0211793
Heightened Def Con from 0.0211794 ++++++++++++++to 0.0211794
Heightened Def Con from 0.0211794 +to 0.0211794
Heightened Def Con from 0.0211794 to 0.0211794
Heightened Def Con from 0.0212724 to 0.0212724
Heightened Def Con from 0.0212794 ++to 0.0212794
Heightened Def Con from 0.0213793 to 0.0213793
Heightened Def Con from 0.0213794 to 0.0213794
Heightened Def Con from 0.0213794 to 0.0213794
Heightened Def Con from 0.0213794 to 0.0213794
Heightened Def Con from 0.0214724 to 0.0214724
Heightened Def Con from 0.0214724 to 0.0214724
Heightened Def Con from 0.0214794 +to 0.0214794
Heightened Def Con from 0.0214794 to 0.0214794
Heightened Def Con from 0.0214794 to 0.0214794
Heightened Def Con from 0.0215793 to 0.0215793
Heightened Def Con from 0.0215793 to 0.0215793
Heightened Def Con from 0.0215794 to 0.0215794
Heightened Def Con from 0.0215794 to 0.0215794
Heightened Def Con from 0.0216794 ++++++++++++++++++++++++++++to 0.0216794
Heightened Def Con from 0.0217724 to 0.0217724
Heightened Def Con from 0.0217794 +to 0.0217794
Heightened Def Con from 0.0217794 to 0.0217794
Heightened Def Con from 0.0217794 to 0.0217794
Heightened Def Con from 0.0217794 to 0.0217794
Heightened Def Con from 0.0217794 to 0.0217794
Heightened Def Con from 0.0218724 to 0.0218724
Heightened Def Con from 0.0218794 +++++++++++++++++++++++++++to 0.0218794
Heightened Def Con from 0.0218794 to 0.0218794
Heightened Def Con from 0.0219724 to 0.0219724
Heightened Def Con from 0.0219792 to 0.0219792
Heightened Def Con from 0.0219793 +to 0.0219793
Heightened Def Con from 0.0219794 ++++++++++++++++++++++++++to 0.0219794
Heightened Def Con from 0.0219794 to 0.0219794
Heightened Def Con from 0.0219794 to 0.0219794
Heightened Def Con from 0.0219794 to 0.0219794
Heightened Def Con from 0.0220724 to 0.0220724
Heightened Def Con from 0.0220794 +to 0.0220794
Heightened Def Con from 0.0220794 to 0.0220794
Heightened Def Con from 0.0221724 to 0.0221724
Heightened Def Con from 0.0221793 +++++++++++++++++++to 0.0221793
Heightened Def Con from 0.0221794 +++to 0.0221794
Heightened Def Con from 0.0221794 to 0.0221794
Heightened Def Con from 0.0221794 to 0.0221794
Heightened Def Con from 0.0222724 to 0.0222724
Heightened Def Con from 0.0222794 +++to 0.0222794
Heightened Def Con from 0.0222794 to 0.0222794
Heightened Def Con from 0.0223724 +to 0.0223724
Heightened Def Con from 0.0223794 +to 0.0223794
Heightened Def Con from 0.0223794 to 0.0223794
Heightened Def Con from 0.0224794 ++++++++++++++++++++++++to 0.0224794
Heightened Def Con from 0.0224794 to 0.0224794
Heightened Def Con from 0.0224794 +to 0.0224794
Heightened Def Con from 0.0224794 to 0.0224794
Heightened Def Con from 0.0224794 to 0.0224794
Heightened Def Con from 0.0225793 ++++++++++++++++++++++++++++to 0.0225793
Heightened Def Con from 0.0225794 +to 0.0225794
Heightened Def Con from 0.0226724 to 0.0226724
Heightened Def Con from 0.0226794 to 0.0226794
Heightened Def Con from 0.0227724 +to 0.0227724
Heightened Def Con from 0.0227793 +to 0.0227793
Heightened Def Con from 0.0227794 +++++++++++++++++++++to 0.0227794
Heightened Def Con from 0.0227794 to 0.0227794
Heightened Def Con from 0.0227794 to 0.0227794
Heightened Def Con from 0.0228793 +to 0.0228793
Heightened Def Con from 0.0228794 +++++++++++++++++++++++++to 0.0228794
Heightened Def Con from 0.0228794 to 0.0228794
Heightened Def Con from 0.0228794 to 0.0228794
Heightened Def Con from 0.0229792 to 0.0229792
Heightened Def Con from 0.0229793 to 0.0229793
Heightened Def Con from 0.0229793 to 0.0229793
Heightened Def Con from 0.0229794 ++++to 0.0229794
Heightened Def Con from 0.0229794 to 0.0229794
Heightened Def Con from 0.0230724 to 0.0230724
Heightened Def Con from 0.0230724 to 0.0230724
Heightened Def Con from 0.0230793 +to 0.0230793
Heightened Def Con from 0.0230794 +++to 0.0230794
Heightened Def Con from 0.0230794 to 0.0230794
Heightened Def Con from 0.0231793 to 0.0231793
Heightened Def Con from 0.0231794 ++++++++++++++++to 0.0231794
Heightened Def Con from 0.0231794 to 0.0231794
Heightened Def Con from 0.0231794 to 0.0231794
Heightened Def Con from 0.0232794 +to 0.0232794
Heightened Def Con from 0.0232794 ++to 0.0232794
Heightened Def Con from 0.0232794 to 0.0232794
Heightened Def Con from 0.0232794 to 0.0232794
Heightened Def Con from 0.0233792 to 0.0233792
Heightened Def Con from 0.0233793 to 0.0233793
Heightened Def Con from 0.0233793 to 0.0233793
Heightened Def Con from 0.0233794 +to 0.0233794
Heightened Def Con from 0.0233794 to 0.0233794
Heightened Def Con from 0.0233794 to 0.0233794
Heightened Def Con from 0.0234724 to 0.0234724
Heightened Def Con from 0.0234794 to 0.0234794
Heightened Def Con from 0.0234794 to 0.0234794
Heightened Def Con from 0.0235724 to 0.0235724
Heightened Def Con from 0.0235791 to 0.0235791
Heightened Def Con from 0.0235794 to 0.0235794
Heightened Def Con from 0.0235794 to 0.0235794
Heightened Def Con from 0.0236724 to 0.0236724
Heightened Def Con from 0.0236794 to 0.0236794
Heightened Def Con from 0.0236794 to 0.0236794
Heightened Def Con from 0.0237793 to 0.0237793
Heightened Def Con from 0.0237794 +to 0.0237794
Heightened Def Con from 0.0237794 to 0.0237794
Heightened Def Con from 0.0237794 to 0.0237794
Heightened Def Con from 0.0237794 to 0.0237794
Heightened Def Con from 0.0238794 +to 0.0238794
Heightened Def Con from 0.0239793 to 0.0239793
Heightened Def Con from 0.0239793 to 0.0239793
Heightened Def Con from 0.0239794 +++++++++++++++++++++++to 0.0239794
Heightened Def Con from 0.0239794 to 0.0239794
Heightened Def Con from 0.0239794 to 0.0239794
Heightened Def Con from 0.0240724 to 0.0240724
Heightened Def Con from 0.0240793 to 0.0240793
Heightened Def Con from 0.0240794 to 0.0240794
Heightened Def Con from 0.0240794 to 0.0240794
Heightened Def Con from 0.0241792 to 0.0241792
Heightened Def Con from 0.0241793 +to 0.0241793
Heightened Def Con from 0.0241794 +++to 0.0241794
Heightened Def Con from 0.0241794 to 0.0241794
Heightened Def Con from 0.0242724 +to 0.0242724
Heightened Def Con from 0.0242792 to 0.0242792
Heightened Def Con from 0.0242793 +to 0.0242793
Heightened Def Con from 0.0242794 +to 0.0242794
Heightened Def Con from 0.0242794 to 0.0242794
Heightened Def Con from 0.0242794 to 0.0242794
Heightened Def Con from 0.0243793 +to 0.0243793
Heightened Def Con from 0.0243794 +++to 0.0243794
Heightened Def Con from 0.0243794 to 0.0243794
Heightened Def Con from 0.0243794 to 0.0243794
Heightened Def Con from 0.0244724 to 0.0244724
Heightened Def Con from 0.0244724 to 0.0244724
Heightened Def Con from 0.0244793 +++to 0.0244793
Heightened Def Con from 0.0244794 ++++++++++++++++++to 0.0244794
Heightened Def Con from 0.0244794 to 0.0244794
Heightened Def Con from 0.0244794 to 0.0244794
Heightened Def Con from 0.0245794 ++++++++++++++++++++++++to 0.0245794
Heightened Def Con from 0.0245794 to 0.0245794
Heightened Def Con from 0.0245794 to 0.0245794
Heightened Def Con from 0.0245794 to 0.0245794
Heightened Def Con from 0.0246794 to 0.0246794
Heightened Def Con from 0.0246794 to 0.0246794
Heightened Def Con from 0.0247724 to 0.0247724
Heightened Def Con from 0.0247794 +to 0.0247794
Heightened Def Con from 0.0247794 to 0.0247794
Heightened Def Con from 0.0248724 to 0.0248724
Heightened Def Con from 0.0248724 to 0.0248724
Heightened Def Con from 0.0248794 ++++++++++++++++++++++++++++to 0.0248794
Heightened Def Con from 0.0248794 to 0.0248794
Heightened Def Con from 0.0248794 to 0.0248794
Heightened Def Con from 0.0249794 +to 0.0249794
Heightened Def Con from 0.0249794 to 0.0249794
Heightened Def Con from 0.0250724 to 0.0250724
Heightened Def Con from 0.025079 to 0.025079
Heightened Def Con from 0.0250794 to 0.0250794
Heightened Def Con from 0.0250794 to 0.0250794
Heightened Def Con from 0.0250794 to 0.0250794
Heightened Def Con from 0.0251724 +to 0.0251724
Heightened Def Con from 0.0251792 to 0.0251792
Heightened Def Con from 0.0251793 to 0.0251793
Heightened Def Con from 0.0251793 to 0.0251793
Heightened Def Con from 0.0251794 ++to 0.0251794
Heightened Def Con from 0.0251794 to 0.0251794
Heightened Def Con from 0.0251794 to 0.0251794
Heightened Def Con from 0.0252792 to 0.0252792
Heightened Def Con from 0.0252793 +to 0.0252793
Heightened Def Con from 0.0252794 +to 0.0252794
Heightened Def Con from 0.0252794 to 0.0252794
Heightened Def Con from 0.0253724 to 0.0253724
Heightened Def Con from 0.0253793 to 0.0253793
Heightened Def Con from 0.0253794 ++++++++to 0.0253794
Heightened Def Con from 0.0253794 to 0.0253794
Heightened Def Con from 0.0253794 to 0.0253794
Heightened Def Con from 0.0253794 to 0.0253794
Heightened Def Con from 0.0254794 +to 0.0254794
Heightened Def Con from 0.0255724 to 0.0255724
Heightened Def Con from 0.0255792 to 0.0255792
Heightened Def Con from 0.0255793 to 0.0255793
Heightened Def Con from 0.0255793 to 0.0255793
Heightened Def Con from 0.0255794 +++++++++++++to 0.0255794
Heightened Def Con from 0.0255794 to 0.0255794
Heightened Def Con from 0.0255794 to 0.0255794
Heightened Def Con from 0.0256793 +to 0.0256793
Heightened Def Con from 0.0256794 to 0.0256794
Heightened Def Con from 0.0256794 to 0.0256794
Heightened Def Con from 0.0257724 to 0.0257724
Heightened Def Con from 0.0257794 +to 0.0257794
Heightened Def Con from 0.0257794 to 0.0257794
Heightened Def Con from 0.0258793 to 0.0258793
Heightened Def Con from 0.0258793 to 0.0258793
Heightened Def Con from 0.0258794 to 0.0258794
Heightened Def Con from 0.0258794 to 0.0258794
Heightened Def Con from 0.0259792 to 0.0259792
Heightened Def Con from 0.0259793 to 0.0259793
Heightened Def Con from 0.0259793 to 0.0259793
Heightened Def Con from 0.0259794 +++++++++++++++++to 0.0259794
Heightened Def Con from 0.0259794 to 0.0259794
Heightened Def Con from 0.0260724 to 0.0260724
Heightened Def Con from 0.0260724 to 0.0260724
Heightened Def Con from 0.0260724 to 0.0260724
Heightened Def Con from 0.0260793 +to 0.0260793
Heightened Def Con from 0.0260794 to 0.0260794
Heightened Def Con from 0.0260794 to 0.0260794
Heightened Def Con from 0.0261724 to 0.0261724
Heightened Def Con from 0.0261792 to 0.0261792
Heightened Def Con from 0.0261793 +to 0.0261793
Heightened Def Con from 0.0261794 ++++++++++++++++++to 0.0261794
Heightened Def Con from 0.0261794 to 0.0261794
Heightened Def Con from 0.0262794 to 0.0262794
Heightened Def Con from 0.0262794 to 0.0262794
Heightened Def Con from 0.0262794 to 0.0262794
Heightened Def Con from 0.0263724 to 0.0263724
Heightened Def Con from 0.0263792 to 0.0263792
Heightened Def Con from 0.0263793 to 0.0263793
Heightened Def Con from 0.0263794 to 0.0263794
Heightened Def Con from 0.0264793 +to 0.0264793
Heightened Def Con from 0.0264794 ++to 0.0264794
Heightened Def Con from 0.0264794 to 0.0264794
Heightened Def Con from 0.0264794 ++++++++++++++++++++++to 0.0264794
Heightened Def Con from 0.0264794 to 0.0264794
Heightened Def Con from 0.0265724 to 0.0265724
Heightened Def Con from 0.0265793 to 0.0265793
Heightened Def Con from 0.0265794 to 0.0265794
Heightened Def Con from 0.0266792 to 0.0266792
Heightened Def Con from 0.0266794 ++++++++++++++++++++++to 0.0266794
Heightened Def Con from 0.0266794 to 0.0266794
Heightened Def Con from 0.0266794 to 0.0266794
Heightened Def Con from 0.0267724 to 0.0267724
Heightened Def Con from 0.0267724 to 0.0267724
Heightened Def Con from 0.0267793 to 0.0267793
Heightened Def Con from 0.0267793 to 0.0267793
Heightened Def Con from 0.0267794 to 0.0267794
Heightened Def Con from 0.0267794 to 0.0267794
Heightened Def Con from 0.0268792 to 0.0268792
Heightened Def Con from 0.0268793 +to 0.0268793
Heightened Def Con from 0.0268794 +to 0.0268794
Heightened Def Con from 0.0268794 to 0.0268794
Heightened Def Con from 0.0268794 to 0.0268794
Heightened Def Con from 0.0269793 +to 0.0269793
Heightened Def Con from 0.0269794 ++++++++++++++++++++++to 0.0269794
Heightened Def Con from 0.0269794 to 0.0269794
Heightened Def Con from 0.0269794 to 0.0269794
Heightened Def Con from 0.0270793 to 0.0270793
Heightened Def Con from 0.0270794 to 0.0270794
Heightened Def Con from 0.0270794 to 0.0270794
Heightened Def Con from 0.0270794 to 0.0270794
Heightened Def Con from 0.0270794 to 0.0270794
Heightened Def Con from 0.0271724 to 0.0271724
Heightened Def Con from 0.0271792 to 0.0271792
Heightened Def Con from 0.0271793 +to 0.0271793
Heightened Def Con from 0.0271794 ++++++++++++++++++++++++++++to 0.0271794
Heightened Def Con from 0.0271794 to 0.0271794
Heightened Def Con from 0.0272724 to 0.0272724
Heightened Def Con from 0.0272724 to 0.0272724
Heightened Def Con from 0.0272792 to 0.0272792
Heightened Def Con from 0.0272793 +to 0.0272793
Heightened Def Con from 0.0272794 +++++++++++to 0.0272794
Heightened Def Con from 0.0272794 +to 0.0272794
Heightened Def Con from 0.0272794 to 0.0272794
Heightened Def Con from 0.0272794 to 0.0272794
Heightened Def Con from 0.0272794 to 0.0272794
Heightened Def Con from 0.0273792 to 0.0273792
Heightened Def Con from 0.0273794 +to 0.0273794
Heightened Def Con from 0.0273794 to 0.0273794
Heightened Def Con from 0.0273794 to 0.0273794
Heightened Def Con from 0.0273794 to 0.0273794
Heightened Def Con from 0.0274724 to 0.0274724
Heightened Def Con from 0.0274792 to 0.0274792
Heightened Def Con from 0.0274793 to 0.0274793
Heightened Def Con from 0.0274794 ++++++++++++++++++++++to 0.0274794
Heightened Def Con from 0.0275792 to 0.0275792
Heightened Def Con from 0.0275793 +to 0.0275793
Heightened Def Con from 0.0275794 +++++++++++++++++++++++to 0.0275794
Heightened Def Con from 0.0275794 to 0.0275794
Heightened Def Con from 0.0276724 to 0.0276724
Heightened Def Con from 0.0276794 to 0.0276794
Heightened Def Con from 0.0276794 to 0.0276794
Heightened Def Con from 0.0276794 to 0.0276794
Heightened Def Con from 0.0277792 to 0.0277792
Heightened Def Con from 0.0277793 +to 0.0277793
Heightened Def Con from 0.0277794 +++++++++++++++to 0.0277794
Heightened Def Con from 0.0277794 to 0.0277794
Heightened Def Con from 0.0278724 to 0.0278724
Heightened Def Con from 0.0278793 +++to 0.0278793
Heightened Def Con from 0.0278794 +++++++++++++++++++++++to 0.0278794
Heightened Def Con from 0.0278794 to 0.0278794
Heightened Def Con from 0.0279724 to 0.0279724
Heightened Def Con from 0.0279793 +++to 0.0279793
Heightened Def Con from 0.0279793 to 0.0279793
Heightened Def Con from 0.0279794 to 0.0279794
Heightened Def Con from 0.0279794 to 0.0279794
Heightened Def Con from 0.0279794 to 0.0279794
Heightened Def Con from 0.0280792 to 0.0280792
Heightened Def Con from 0.0280793 to 0.0280793
Heightened Def Con from 0.0280793 to 0.0280794
Heightened Def Con from 0.0280794 +to 0.0280794
Heightened Def Con from 0.0280794 to 0.0280794
Heightened Def Con from 0.0281793 +to 0.0281793
Heightened Def Con from 0.0281794 to 0.0281794
Heightened Def Con from 0.0281794 to 0.0281794
Heightened Def Con from 0.0281794 to 0.0281794
Heightened Def Con from 0.0282724 to 0.0282724
Heightened Def Con from 0.0282794 to 0.0282794
Heightened Def Con from 0.0282794 to 0.0282794
Heightened Def Con from 0.0283724 to 0.0283724
Heightened Def Con from 0.0283794 to 0.0283794
Heightened Def Con from 0.0284794 +to 0.0284794
Heightened Def Con from 0.0284794 ++++++++++++++++++++++++to 0.0284794
Heightened Def Con from 0.0285793 to 0.0285793
Heightened Def Con from 0.0285794 +++++++++++++++++++++++++to 0.0285794
Heightened Def Con from 0.0285794 to 0.0285794
Heightened Def Con from 0.0286792 to 0.0286792
Heightened Def Con from 0.0286793 to 0.0286793
Heightened Def Con from 0.0286793 to 0.0286793
Heightened Def Con from 0.0286794 +to 0.0286794
Heightened Def Con from 0.0286794 to 0.0286794
Heightened Def Con from 0.0286794 to 0.0286794
Heightened Def Con from 0.0287794 to 0.0287794
Heightened Def Con from 0.0287794 to 0.0287794
Heightened Def Con from 0.0287794 to 0.0287794
Heightened Def Con from 0.0287794 to 0.0287794
Heightened Def Con from 0.0288794 +to 0.0288794
Heightened Def Con from 0.0288794 to 0.0288794
Heightened Def Con from 0.0289792 to 0.0289792
Heightened Def Con from 0.0289793 to 0.0289793
Heightened Def Con from 0.0289793 to 0.0289793
Heightened Def Con from 0.0289794 ++++++++++++++++++++++++++++to 0.0289794
Heightened Def Con from 0.0290792 to 0.0290792
Heightened Def Con from 0.0290793 +to 0.0290793
Heightened Def Con from 0.0290794 ++++++++++++++++++++to 0.0290794
Heightened Def Con from 0.0290794 to 0.0290794
Heightened Def Con from 0.0291792 to 0.0291792
Heightened Def Con from 0.0291793 to 0.0291793
Heightened Def Con from 0.0291793 to 0.0291793
Heightened Def Con from 0.0291794 +++++++++++++++++++++++++to 0.0291794
Heightened Def Con from 0.0291794 to 0.0291794
Heightened Def Con from 0.0291794 to 0.0291794
Heightened Def Con from 0.0292724 to 0.0292724
Heightened Def Con from 0.0292794 ++++++++++++++++++++++++++++to 0.0292794
Heightened Def Con from 0.0293724 to 0.0293724
Heightened Def Con from 0.0293794 ++++++++++++++++++++++++++++to 0.0293794
Heightened Def Con from 0.0293794 to 0.0293794
Heightened Def Con from 0.0294793 +++to 0.0294793
Heightened Def Con from 0.0294793 to 0.0294793
Heightened Def Con from 0.0294794 to 0.0294794
Heightened Def Con from 0.0294794 to 0.0294794
Heightened Def Con from 0.0295724 to 0.0295724
Heightened Def Con from 0.0295793 +++++++++++++++++++++++to 0.0295793
Heightened Def Con from 0.0295794 ++to 0.0295794
Heightened Def Con from 0.0295794 to 0.0295794
Heightened Def Con from 0.0295794 to 0.0295794
Heightened Def Con from 0.0296724 +to 0.0296724
Heightened Def Con from 0.0296793 to 0.0296793
Heightened Def Con from 0.0296793 to 0.0296793
Heightened Def Con from 0.0296794 +to 0.0296794
Heightened Def Con from 0.0296794 to 0.0296794
Heightened Def Con from 0.0297793 to 0.0297793
Heightened Def Con from 0.0297794 +to 0.0297794
Heightened Def Con from 0.0297794 to 0.0297794
Heightened Def Con from 0.0298724 to 0.0298724
Heightened Def Con from 0.0298793 to 0.0298793
Heightened Def Con from 0.0298794 to 0.0298794
Heightened Def Con from 0.0298794 to 0.0298794
Heightened Def Con from 0.0298794 to 0.0298794
Heightened Def Con from 0.0299793 to 0.0299793
Heightened Def Con from 0.0299794 ++++++++++++++++++++++++to 0.0299794
Heightened Def Con from 0.0299794 +to 0.0299794
Heightened Def Con from 0.0299794 to 0.0299794
Heightened Def Con from 0.0300793 +to 0.0300793
Heightened Def Con from 0.0300794 to 0.0300794
Heightened Def Con from 0.0300794 to 0.0300794
Heightened Def Con from 0.0300794 to 0.0300794
Heightened Def Con from 0.0301724 to 0.0301724
Heightened Def Con from 0.0301793 +to 0.0301793
Heightened Def Con from 0.0301794 +++++++++++++++++++++++++to 0.0301794
Heightened Def Con from 0.0302724 to 0.0302724
Heightened Def Con from 0.0302724 to 0.0302724
Heightened Def Con from 0.0302792 to 0.0302792
Heightened Def Con from 0.0302794 +to 0.0302794
Heightened Def Con from 0.0302794 to 0.0302794
Heightened Def Con from 0.0303794 +to 0.0303794
Heightened Def Con from 0.0303794 to 0.0303794
Heightened Def Con from 0.0304793 +to 0.0304793
Heightened Def Con from 0.0304794 to 0.0304794
Heightened Def Con from 0.0304794 +to 0.0304794
Heightened Def Con from 0.0304794 to 0.0304794
Heightened Def Con from 0.0305724 to 0.0305724
Heightened Def Con from 0.0305724 to 0.0305724
Heightened Def Con from 0.0305794 to 0.0305794
Heightened Def Con from 0.030679 to 0.030679
Heightened Def Con from 0.0306793 +to 0.0306793
Heightened Def Con from 0.0306794 ++to 0.0306794
Heightened Def Con from 0.0306794 to 0.0306794
Heightened Def Con from 0.0306794 to 0.0306794
Heightened Def Con from 0.0307792 to 0.0307792
Heightened Def Con from 0.0307794 +to 0.0307794
Heightened Def Con from 0.0307794 to 0.0307794
Heightened Def Con from 0.0307794 to 0.0307794
Heightened Def Con from 0.0307794 to 0.0307794
Heightened Def Con from 0.0308724 to 0.0308724
Heightened Def Con from 0.0308793 ++++++++++++++++++++++++++to 0.0308793
Heightened Def Con from 0.0308793 to 0.0308793
Heightened Def Con from 0.0308794 +++++++++++++++++++++++++to 0.0308794
Heightened Def Con from 0.0308794 to 0.0308794
Heightened Def Con from 0.0309793 +to 0.0309793
Heightened Def Con from 0.0309794 to 0.0309794
Heightened Def Con from 0.0310791 to 0.0310791
Heightened Def Con from 0.0310794 +to 0.0310794
Heightened Def Con from 0.0311724 to 0.0311724
Heightened Def Con from 0.0311792 to 0.0311792
Heightened Def Con from 0.0311794 to 0.0311794
Heightened Def Con from 0.0311794 to 0.0311794
Heightened Def Con from 0.031279 to 0.031279
Heightened Def Con from 0.0312793 to 0.0312793
Heightened Def Con from 0.0312793 to 0.0312793
Heightened Def Con from 0.0312794 ++++++++++++++++++++++to 0.0312794
Heightened Def Con from 0.0312794 to 0.0312794
Heightened Def Con from 0.0313794 to 0.0313794
Heightened Def Con from 0.0313794 to 0.0313794
Heightened Def Con from 0.0313794 to 0.0313794
Heightened Def Con from 0.0314724 to 0.0314724
Heightened Def Con from 0.0314724 to 0.0314724
Heightened Def Con from 0.0314793 +to 0.0314793
Heightened Def Con from 0.0314794 +to 0.0314794
Heightened Def Con from 0.0314794 to 0.0314794
Heightened Def Con from 0.0315724 to 0.0315724
Heightened Def Con from 0.0315793 to 0.0315793
Heightened Def Con from 0.0315793 to 0.0315793
Heightened Def Con from 0.0315794 to 0.0315794
Heightened Def Con from 0.0315794 +to 0.0315794
Heightened Def Con from 0.0315794 to 0.0315794
Heightened Def Con from 0.0316724 to 0.0316724
Heightened Def Con from 0.0316793 +to 0.0316793
Heightened Def Con from 0.0316794 to 0.0316794
Heightened Def Con from 0.0316794 to 0.0316794
Heightened Def Con from 0.0317724 +to 0.0317724
Heightened Def Con from 0.0317794 to 0.0317794
Heightened Def Con from 0.0318724 to 0.0318724
Heightened Def Con from 0.0318794 +to 0.0318794
Heightened Def Con from 0.0318794 to 0.0318794
Heightened Def Con from 0.0319792 to 0.0319792
Heightened Def Con from 0.0319793 to 0.0319793
Heightened Def Con from 0.0319793 to 0.0319793
Heightened Def Con from 0.0319794 to 0.0319794
Heightened Def Con from 0.0319794 +++++++++++++++++++++++to 0.0319794
Heightened Def Con from 0.0319794 to 0.0319794
Heightened Def Con from 0.0319794 to 0.0319794
Heightened Def Con from 0.0320794 to 0.0320794
Heightened Def Con from 0.0320794 to 0.0320794
Heightened Def Con from 0.0320794 +to 0.0320794
Heightened Def Con from 0.0320794 to 0.0320794
Heightened Def Con from 0.0321792 to 0.0321792
Heightened Def Con from 0.0321793 +to 0.0321793
Heightened Def Con from 0.0321794 ++++++++++++++++++to 0.0321794
Heightened Def Con from 0.0321794 to 0.0321794
Heightened Def Con from 0.0321794 to 0.0321794
Heightened Def Con from 0.0322792 to 0.0322792
Heightened Def Con from 0.0322793 +to 0.0322793
Heightened Def Con from 0.0322794 +++++++++++++++++++++to 0.0322794
Heightened Def Con from 0.0322794 to 0.0322794
Heightened Def Con from 0.0323793 +to 0.0323793
Heightened Def Con from 0.0323794 ++++++++++++++++++++++++++++to 0.0323794
Heightened Def Con from 0.0323794 to 0.0323794
Heightened Def Con from 0.0324792 to 0.0324792
Heightened Def Con from 0.0324793 to 0.0324793
Heightened Def Con from 0.0324793 to 0.0324793
Heightened Def Con from 0.0324794 +++to 0.0324794
Heightened Def Con from 0.0324794 to 0.0324794
Heightened Def Con from 0.0325793 to 0.0325793
Heightened Def Con from 0.0325794 to 0.0325794
Heightened Def Con from 0.0326794 ++to 0.0326794
Heightened Def Con from 0.0326794 to 0.0326794
Heightened Def Con from 0.0326794 to 0.0326794
Heightened Def Con from 0.0327793 +++++++++++++++++++to 0.0327793
Heightened Def Con from 0.0327793 to 0.0327793
Heightened Def Con from 0.0327794 ++++++++++++++++++++++++to 0.0327794
Heightened Def Con from 0.0327794 to 0.0327794
Heightened Def Con from 0.0328792 to 0.0328792
Heightened Def Con from 0.0328793 to 0.0328793
Heightened Def Con from 0.0328793 to 0.0328793
Heightened Def Con from 0.0328794 ++to 0.0328794
Heightened Def Con from 0.0328794 to 0.0328794
Heightened Def Con from 0.0328794 to 0.0328794
Heightened Def Con from 0.0328794 to 0.0328794
Heightened Def Con from 0.0329793 to 0.0329793
Heightened Def Con from 0.0329794 to 0.0329794
Heightened Def Con from 0.0329794 to 0.0329794
Heightened Def Con from 0.0329794 +++to 0.0329794
Heightened Def Con from 0.0330793 to 0.0330793
Heightened Def Con from 0.0330794 ++to 0.0330794
Heightened Def Con from 0.0330794 to 0.0330794
Heightened Def Con from 0.0330794 to 0.0330794
Heightened Def Con from 0.0331792 to 0.0331792
Heightened Def Con from 0.0331793 to 0.0331793
Heightened Def Con from 0.0331793 to 0.0331793
Heightened Def Con from 0.0331794 ++to 0.0331794
Heightened Def Con from 0.0331794 to 0.0331794
Heightened Def Con from 0.0331794 to 0.0331794
Heightened Def Con from 0.0331794 to 0.0331794
Heightened Def Con from 0.0332792 to 0.0332792
Heightened Def Con from 0.0332793 +to 0.0332793
Heightened Def Con from 0.0332794 to 0.0332794
Heightened Def Con from 0.0332794 to 0.0332794
Heightened Def Con from 0.0333793 to 0.0333793
Heightened Def Con from 0.0333794 to 0.0333794
Heightened Def Con from 0.0333794 to 0.0333794
Heightened Def Con from 0.0334724 to 0.0334724
Heightened Def Con from 0.0334724 to 0.0334724
Heightened Def Con from 0.0334794 to 0.0334794
Heightened Def Con from 0.0334794 to 0.0334794
Heightened Def Con from 0.0335794 +to 0.0335794
Heightened Def Con from 0.0335794 to 0.0335794
Heightened Def Con from 0.0335794 to 0.0335794
Heightened Def Con from 0.0336794 +++++++++++++++++++++++++++to 0.0336794
Heightened Def Con from 0.0337724 to 0.0337724
Heightened Def Con from 0.0337794 to 0.0337794
Heightened Def Con from 0.0338724 to 0.0338724
Heightened Def Con from 0.0338724 to 0.0338724
Heightened Def Con from 0.0338794 +++to 0.0338794
Heightened Def Con from 0.0338794 to 0.0338794
Heightened Def Con from 0.0339724 to 0.0339724
Heightened Def Con from 0.0339793 ++++++++++++++++++++++++to 0.0339793
Heightened Def Con from 0.0339793 to 0.0339793
Heightened Def Con from 0.0339794 to 0.0339794
Heightened Def Con from 0.0339794 to 0.0339794
Heightened Def Con from 0.0340794 to 0.0340794
Heightened Def Con from 0.0340794 to 0.0340794
Heightened Def Con from 0.0340794 +to 0.0340794
Heightened Def Con from 0.0341724 to 0.0341724
Heightened Def Con from 0.0341794 +++to 0.0341794
Heightened Def Con from 0.0342794 +to 0.0342794
Heightened Def Con from 0.0342794 to 0.0342794
Heightened Def Con from 0.0343793 to 0.0343793
Heightened Def Con from 0.0343793 to 0.0343793
Heightened Def Con from 0.0343794 ++++++++++++++++++++++++to 0.0343794
Heightened Def Con from 0.0343794 to 0.0343794
Heightened Def Con from 0.0343794 ++to 0.0343794
Heightened Def Con from 0.0343794 to 0.0343794
Heightened Def Con from 0.0344793 +to 0.0344793
Heightened Def Con from 0.0344794 ++++++++++++++++++++++++to 0.0344794
Heightened Def Con from 0.0344794 to 0.0344794
Heightened Def Con from 0.0344794 to 0.0344794
Heightened Def Con from 0.0345794 to 0.0345794
Heightened Def Con from 0.0345794 +to 0.0345794
Heightened Def Con from 0.0346793 to 0.0346793
Heightened Def Con from 0.0346794 to 0.0346794
Heightened Def Con from 0.0347794 +to 0.0347794
Heightened Def Con from 0.0347794 to 0.0347794
Heightened Def Con from 0.0347794 to 0.0347794
Heightened Def Con from 0.0348724 to 0.0348724
Heightened Def Con from 0.0348724 to 0.0348724
Heightened Def Con from 0.0348793 +to 0.0348793
Heightened Def Con from 0.0348794 to 0.0348794
Heightened Def Con from 0.0348794 to 0.0348794
Heightened Def Con from 0.0348794 to 0.0348794
Heightened Def Con from 0.0349793 to 0.0349793
Heightened Def Con from 0.0349794 to 0.0349794
Heightened Def Con from 0.0349794 to 0.0349794
Heightened Def Con from 0.0349794 to 0.0349794
Heightened Def Con from 0.0350792 to 0.0350792
Heightened Def Con from 0.0350793 ++++++++++++++to 0.0350793
Heightened Def Con from 0.0350793 to 0.0350793
Heightened Def Con from 0.0350794 ++to 0.0350794
Heightened Def Con from 0.0350794 to 0.0350794
Heightened Def Con from 0.0350794 +to 0.0350794
Heightened Def Con from 0.0350794 +to 0.0350794
Heightened Def Con from 0.0351791 to 0.0351791
Heightened Def Con from 0.0351793 +to 0.0351793
Heightened Def Con from 0.0351794 +++++++++++++++++++++++to 0.0351794
Heightened Def Con from 0.0351794 to 0.0351794
Heightened Def Con from 0.0352793 ++++++++++++++++++++++++++++to 0.0352793
Heightened Def Con from 0.0352794 to 0.0352794
Heightened Def Con from 0.0353724 to 0.0353724
Heightened Def Con from 0.0353792 to 0.0353792
Heightened Def Con from 0.0353794 +to 0.0353794
Heightened Def Con from 0.0353794 ++++++++++++++++++to 0.0353794
Heightened Def Con from 0.0353794 to 0.0353794
Heightened Def Con from 0.0353794 to 0.0353794
Heightened Def Con from 0.035479 to 0.035479
Heightened Def Con from 0.0354793 +to 0.0354793
Heightened Def Con from 0.0354794 +++++++++++++++++++++++++to 0.0354794
Heightened Def Con from 0.0354794 to 0.0354794
Heightened Def Con from 0.0354794 to 0.0354794
Heightened Def Con from 0.0355724 to 0.0355724
Heightened Def Con from 0.0355793 to 0.0355793
Heightened Def Con from 0.0355793 to 0.0355793
Heightened Def Con from 0.0355794 ++++++++++++++++++++++++++to 0.0355794
Heightened Def Con from 0.0355794 to 0.0355794
Heightened Def Con from 0.0355794 to 0.0355794
Heightened Def Con from 0.0356791 to 0.0356791
Heightened Def Con from 0.0356794 +to 0.0356794
Heightened Def Con from 0.0356794 +++to 0.0356794
Heightened Def Con from 0.0356794 to 0.0356794
Heightened Def Con from 0.0356794 to 0.0356794
Heightened Def Con from 0.0357724 to 0.0357724
Heightened Def Con from 0.035779 to 0.035779
Heightened Def Con from 0.0357794 to 0.0357794
Heightened Def Con from 0.0357794 +to 0.0357794
Heightened Def Con from 0.0357794 to 0.0357794
Heightened Def Con from 0.0358724 +to 0.0358724
Heightened Def Con from 0.0358792 to 0.0358792
Heightened Def Con from 0.0358793 +to 0.0358794
Heightened Def Con from 0.0358794 +++++++++++++to 0.0358794
Heightened Def Con from 0.0358794 +to 0.0358794
Heightened Def Con from 0.0358794 to 0.0358794
Heightened Def Con from 0.0359791 to 0.0359791
Heightened Def Con from 0.0359793 to 0.0359793
Heightened Def Con from 0.0359793 to 0.0359793
Heightened Def Con from 0.0359794 ++++++++++++++++++++++to 0.0359794
Heightened Def Con from 0.0359794 +to 0.0359794
Heightened Def Con from 0.0359794 to 0.0359794
Heightened Def Con from 0.0360724 to 0.0360724
Heightened Def Con from 0.0360724 to 0.0360724
Heightened Def Con from 0.0360793 +to 0.0360793
Heightened Def Con from 0.0360794 to 0.0360794
Heightened Def Con from 0.0360794 to 0.0360794
Heightened Def Con from 0.0360794 to 0.0360794
Heightened Def Con from 0.0361792 to 0.0361792
Heightened Def Con from 0.0361793 +to 0.0361793
Heightened Def Con from 0.0361794 +++++++++++++++to 0.0361794
Heightened Def Con from 0.0361794 to 0.0361794
Heightened Def Con from 0.0361794 to 0.0361794
Heightened Def Con from 0.0362792 to 0.0362792
Heightened Def Con from 0.0362793 to 0.0362793
Heightened Def Con from 0.0362793 to 0.0362793
Heightened Def Con from 0.0362794 ++to 0.0362794
Heightened Def Con from 0.0362794 to 0.0362794
Heightened Def Con from 0.0363724 to 0.0363724
Heightened Def Con from 0.0363793 +to 0.0363793
Heightened Def Con from 0.0363794 to 0.0363794
Heightened Def Con from 0.0364793 ++++++++++++++++++++++++to 0.0364793
Heightened Def Con from 0.0364794 to 0.0364794
Heightened Def Con from 0.0365724 to 0.0365724
Heightened Def Con from 0.0365724 to 0.0365724
Heightened Def Con from 0.0365793 ++++++++++++++++++++++++to 0.0365793
Heightened Def Con from 0.0365794 ++++++++++++++++++++++++to 0.0365794
Heightened Def Con from 0.0366792 to 0.0366792
Heightened Def Con from 0.0366793 +to 0.0366793
Heightened Def Con from 0.0366794 to 0.0366794
Heightened Def Con from 0.0366794 to 0.0366794
Heightened Def Con from 0.0367794 +++++++++++++++++++to 0.0367794
Heightened Def Con from 0.0368794 +to 0.0368794
Heightened Def Con from 0.0368794 to 0.0368794
Heightened Def Con from 0.0369793 to 0.0369793
Heightened Def Con from 0.0369794 ++++++++++++++++++++++++++++to 0.0369794
Heightened Def Con from 0.0370724 +to 0.0370724
Heightened Def Con from 0.0370724 to 0.0370724
Heightened Def Con from 0.0370794 ++to 0.0370794
Heightened Def Con from 0.0371724 to 0.0371724
Heightened Def Con from 0.0371792 to 0.0371792
Heightened Def Con from 0.0371793 +to 0.0371793
Heightened Def Con from 0.0371794 +to 0.0371794
Heightened Def Con from 0.0371794 to 0.0371794
Heightened Def Con from 0.0372794 to 0.0372794
Heightened Def Con from 0.0373724 to 0.0373724
Heightened Def Con from 0.0373794 ++++++++++++++++++++++++++++to 0.0373794
Heightened Def Con from 0.0373794 to 0.0373794
Heightened Def Con from 0.0374724 to 0.0374724
Heightened Def Con from 0.0374793 to 0.0374793
Heightened Def Con from 0.0374793 to 0.0374793
Heightened Def Con from 0.0374794 ++to 0.0374794
Heightened Def Con from 0.0374794 to 0.0374794
Heightened Def Con from 0.0374794 +to 0.0374794
Heightened Def Con from 0.0374794 to 0.0374794
Heightened Def Con from 0.0375793 +to 0.0375793
Heightened Def Con from 0.0375794 +++++++++++++++++++++++to 0.0375794
Heightened Def Con from 0.0375794 to 0.0375794
Heightened Def Con from 0.0375794 ++to 0.0375794
Heightened Def Con from 0.0375794 to 0.0375794
Heightened Def Con from 0.0376793 to 0.0376793
Heightened Def Con from 0.0376794 to 0.0376794
Heightened Def Con from 0.0376794 to 0.0376794
Heightened Def Con from 0.0377724 to 0.0377724
Heightened Def Con from 0.0377794 to 0.0377794
Heightened Def Con from 0.0377794 to 0.0377794
Heightened Def Con from 0.0377794 to 0.0377794
Heightened Def Con from 0.0378793 +to 0.0378793
Heightened Def Con from 0.0378794 to 0.0378794
Heightened Def Con from 0.0378794 +to 0.0378794
Heightened Def Con from 0.0378794 to 0.0378794
Heightened Def Con from 0.0379724 to 0.0379724
Heightened Def Con from 0.0379792 to 0.0379792
Heightened Def Con from 0.0379793 +to 0.0379793
Heightened Def Con from 0.0379794 ++to 0.0379794
Heightened Def Con from 0.0379794 to 0.0379794
Heightened Def Con from 0.0380792 to 0.0380792
Heightened Def Con from 0.0380794 +++++++++++++++++++++++++++++to 0.0380794
Heightened Def Con from 0.0380794 to 0.0380794
Heightened Def Con from 0.0380794 +to 0.0380794
Heightened Def Con from 0.0381724 to 0.0381724
Heightened Def Con from 0.0381794 to 0.0381794
Heightened Def Con from 0.0382792 to 0.0382792
Heightened Def Con from 0.0382793 +to 0.0382793
Heightened Def Con from 0.0382794 +++to 0.0382794
Heightened Def Con from 0.0382794 to 0.0382794
Heightened Def Con from 0.0383793 +to 0.0383793
Heightened Def Con from 0.0383794 +++to 0.0383794
Heightened Def Con from 0.0383794 to 0.0383794
Heightened Def Con from 0.0383794 to 0.0383794
Heightened Def Con from 0.0384793 to 0.0384793
Heightened Def Con from 0.0384793 to 0.0384793
Heightened Def Con from 0.0384794 ++++++++++++++++++++++++++++to 0.0384794
Heightened Def Con from 0.0384794 +to 0.0384794
Heightened Def Con from 0.0384794 to 0.0384794
Heightened Def Con from 0.0385724 +to 0.0385724
Heightened Def Con from 0.038579 to 0.0385791
Heightened Def Con from 0.0385794 ++++++++++++++++++++++++to 0.0385794
Heightened Def Con from 0.0385794 to 0.0385794
Heightened Def Con from 0.0385794 +to 0.0385794
Heightened Def Con from 0.0385794 to 0.0385794
Heightened Def Con from 0.0386792 to 0.0386792
Heightened Def Con from 0.0386793 to 0.0386793
Heightened Def Con from 0.0386793 to 0.0386793
Heightened Def Con from 0.0386794 ++++++++++++++++++++to 0.0386794
Heightened Def Con from 0.0386794 to 0.0386794
Heightened Def Con from 0.0386794 to 0.0386794
Heightened Def Con from 0.0386794 to 0.0386794
Heightened Def Con from 0.0387794 ++++++++++++++++++++++++to 0.0387794
Heightened Def Con from 0.0387794 to 0.0387794
Heightened Def Con from 0.0387794 to 0.0387794
Heightened Def Con from 0.0388724 to 0.0388724
Heightened Def Con from 0.0388793 +to 0.0388793
Heightened Def Con from 0.0388794 to 0.0388794
Heightened Def Con from 0.0388794 to 0.0388794
Heightened Def Con from 0.0389794 +to 0.0389794
Heightened Def Con from 0.0389794 to 0.0389794
Heightened Def Con from 0.0390794 +to 0.0390794
Heightened Def Con from 0.0391724 +to 0.0391724
Heightened Def Con from 0.0391793 to 0.0391793
Heightened Def Con from 0.0391794 to 0.0391794
Heightened Def Con from 0.0391794 to 0.0391794
Heightened Def Con from 0.0392724 +to 0.0392724
Heightened Def Con from 0.0392793 ++to 0.0392793
Heightened Def Con from 0.0392794 ++to 0.0392794
Heightened Def Con from 0.0392794 to 0.0392794
Heightened Def Con from 0.0393794 +to 0.0393794
Heightened Def Con from 0.039479 to 0.039479
Heightened Def Con from 0.0394793 ++to 0.0394793
Heightened Def Con from 0.0394793 to 0.0394793
Heightened Def Con from 0.0394794 ++++++++++++++++++++++to 0.0394794
Heightened Def Con from 0.0395793 +to 0.0395793
Heightened Def Con from 0.0395794 to 0.0395794
Heightened Def Con from 0.0395794 to 0.0395794
Heightened Def Con from 0.0396793 to 0.0396793
Heightened Def Con from 0.0396794 +to 0.0396794
Heightened Def Con from 0.0396794 to 0.0396794
Heightened Def Con from 0.0397724 to 0.0397724
Heightened Def Con from 0.0397794 to 0.0397794
Heightened Def Con from 0.0397794 to 0.0397794
Heightened Def Con from 0.0397794 to 0.0397794
Heightened Def Con from 0.0398724 to 0.0398724
Heightened Def Con from 0.0398794 to 0.0398794
Heightened Def Con from 0.0399792 to 0.0399792
Heightened Def Con from 0.0399793 +to 0.0399793
Heightened Def Con from 0.0399794 +++++++++++++++to 0.0399794
Heightened Def Con from 0.0399794 to 0.0399794
Heightened Def Con from 0.0399794 to 0.0399794
Heightened Def Con from 0.0400794 to 0.0400794
Heightened Def Con from 0.0401792 to 0.0401792
Heightened Def Con from 0.0401793 +to 0.0401793
Heightened Def Con from 0.0401794 +++++++++++++++++++++++++++to 0.0401794
Heightened Def Con from 0.0401794 to 0.0401794
Heightened Def Con from 0.0402792 to 0.0402792
Heightened Def Con from 0.0402793 +to 0.0402793
Heightened Def Con from 0.0402794 to 0.0402794
Heightened Def Con from 0.0402794 to 0.0402794
Heightened Def Con from 0.0403794 ++++++++++++++++++to 0.0403794
Heightened Def Con from 0.0404793 ++++++++++++++++to 0.0404793
Heightened Def Con from 0.0404794 ++++++++++++++++++++++to 0.0404794
Heightened Def Con from 0.0404794 to 0.0404794
Heightened Def Con from 0.0404794 to 0.0404794
Heightened Def Con from 0.0405724 to 0.0405724
Heightened Def Con from 0.0405794 to 0.0405794
Heightened Def Con from 0.0406724 to 0.0406724
Heightened Def Con from 0.0406724 to 0.0406724
Heightened Def Con from 0.0406794 ++++++++++++++to 0.0406794
Heightened Def Con from 0.0406794 to 0.0406794
Heightened Def Con from 0.0406794 to 0.0406794
Heightened Def Con from 0.0407724 to 0.0407724
Heightened Def Con from 0.0407794 to 0.0407794
Heightened Def Con from 0.0408724 to 0.0408724
Heightened Def Con from 0.0408724 to 0.0408724
Heightened Def Con from 0.0408793 +to 0.0408793
Heightened Def Con from 0.0408794 +++++++++++++++++++++++++++to 0.0408794
Heightened Def Con from 0.0409794 +to 0.0409794
Heightened Def Con from 0.0409794 to 0.0409794
Heightened Def Con from 0.0410724 to 0.0410724
Heightened Def Con from 0.0410794 +to 0.0410794
[...]
Heightened Def Con from 0.0911794 to 0.0911794
Heightened Def Con from 0.0911794 to 0.0911794
Heightened Def Con from 0.0912724 to 0.0912724
Heightened Def Con from 0.0912794 to 0.0912794
Heightened Def Con from 0.0913724 to 0.0913724
Heightened Def Con from 0.0913794 +++to 0.0913794
Heightened Def Con from 0.0914724 to 0.0914724
Heightened Def Con from 0.0914794 to 0.0914794
Heightened Def Con from 0.0915793 ++to 0.0915793
Heightened Def Con from 0.0915794 +++++to 0.0915794
Heightened Def Con from 0.0915794 to 0.0915794
Heightened Def Con from 0.0915794 to 0.0915794
Heightened Def Con from 0.0916792 to 0.0916792
Heightened Def Con from 0.0916793 to 0.0916793
Heightened Def Con from 0.0916793 to 0.0916793
Heightened Def Con from 0.0916794 ++to 0.0916794
Heightened Def Con from 0.0916794 to 0.0916794
Heightened Def Con from 0.0916794 to 0.0916794
Heightened Def Con from 0.0916794 to 0.0916794
Heightened Def Con from 0.0917724 to 0.0917724
Heightened Def Con from 0.0917794 to 0.0917794
Heightened Def Con from 0.0918724 to 0.0918724
Heightened Def Con from 0.0918724 to 0.0918724
Heightened Def Con from 0.0918794 +to 0.0918794
Heightened Def Con from 0.0918794 to 0.0918794
Heightened Def Con from 0.0919793 to 0.0919793
Heightened Def Con from 0.0919794 +++to 0.0919794
Heightened Def Con from 0.0919794 to 0.0919794
Heightened Def Con from 0.0919794 to 0.0919794
Heightened Def Con from 0.0920792 to 0.0920792
Heightened Def Con from 0.0920793 to 0.0920793
Heightened Def Con from 0.0920794 +to 0.0920794
Heightened Def Con from 0.0920794 to 0.0920794
Heightened Def Con from 0.0920794 +++++++to 0.0920794
Heightened Def Con from 0.092179 to 0.092179
Heightened Def Con from 0.0921793 +to 0.0921793
Heightened Def Con from 0.0921793 to 0.0921793
Heightened Def Con from 0.0921794 ++++++++++++++++++++++++to 0.0921794
Heightened Def Con from 0.0921794 to 0.0921794
Heightened Def Con from 0.0922792 to 0.0922792
Heightened Def Con from 0.0922793 +to 0.0922793
Heightened Def Con from 0.0922794 ++++++++++++++++to 0.0922794
Heightened Def Con from 0.0922794 to 0.0922794
Heightened Def Con from 0.0922794 to 0.0922794
Heightened Def Con from 0.0923792 to 0.0923792
Heightened Def Con from 0.0923794 +++++++++++++++++++++++++++to 0.0923794
Heightened Def Con from 0.0923794 to 0.0923794
Heightened Def Con from 0.0924794 ++++++++++++++++++++++++to 0.0924794
Heightened Def Con from 0.0924794 to 0.0924794
Heightened Def Con from 0.0925792 to 0.0925792
Heightened Def Con from 0.0925793 to 0.0925793
Heightened Def Con from 0.0925793 to 0.0925793
Heightened Def Con from 0.0925794 ++to 0.0925794
Heightened Def Con from 0.0925794 to 0.0925794
Heightened Def Con from 0.0925794 to 0.0925794
Heightened Def Con from 0.0925794 to 0.0925794
Heightened Def Con from 0.0926724 to 0.0926724
Heightened Def Con from 0.0926793 +to 0.0926793
Heightened Def Con from 0.0926794 to 0.0926794
Heightened Def Con from 0.0926794 to 0.0926794
Heightened Def Con from 0.0926794 to 0.0926794
Heightened Def Con from 0.0927794 ++++++++++++++++++++++++++++to 0.0927794
Heightened Def Con from 0.0927794 to 0.0927794
Heightened Def Con from 0.0928793 +to 0.0928793
Heightened Def Con from 0.0928794 to 0.0928794
Heightened Def Con from 0.0928794 to 0.0928794
Heightened Def Con from 0.0929792 to 0.0929792
Heightened Def Con from 0.0929793 +to 0.0929793
Heightened Def Con from 0.0929794 ++++++++++++++++++++++to 0.0929794
Heightened Def Con from 0.093079 to 0.093079
Heightened Def Con from 0.0930793 +to 0.0930793
Heightened Def Con from 0.0930794 ++++++++++++++++++++++++to 0.0930794
Heightened Def Con from 0.0930794 to 0.0930794
Heightened Def Con from 0.0930794 to 0.0930794
Heightened Def Con from 0.0931792 to 0.0931792
Heightened Def Con from 0.0931793 +to 0.0931793
Heightened Def Con from 0.0931794 +to 0.0931794
Heightened Def Con from 0.0931794 to 0.0931794
Heightened Def Con from 0.093279 to 0.093279
Heightened Def Con from 0.0932793 +to 0.0932793
Heightened Def Con from 0.0932794 +++++++++++++++++++++++++++++to 0.0932794
Heightened Def Con from 0.0932794 +++to 0.0932794
Heightened Def Con from 0.0932794 to 0.0932794
Heightened Def Con from 0.0933792 to 0.0933792
Heightened Def Con from 0.0933793 to 0.0933793
Heightened Def Con from 0.0933793 to 0.0933793
Heightened Def Con from 0.0933794 to 0.0933794
Heightened Def Con from 0.0933794 to 0.0933794
Heightened Def Con from 0.0933794 to 0.0933794
Heightened Def Con from 0.0933794 to 0.0933794
Heightened Def Con from 0.093479 to 0.093479
Heightened Def Con from 0.0934793 +to 0.0934793
Heightened Def Con from 0.0934794 to 0.0934794
Heightened Def Con from 0.0934794 to 0.0934794
Heightened Def Con from 0.0934794 to 0.0934794
Heightened Def Con from 0.0934794 to 0.0934794
Heightened Def Con from 0.0934794 to 0.0934794
Heightened Def Con from 0.093579 to 0.093579
Heightened Def Con from 0.0935793 ++to 0.0935793
Heightened Def Con from 0.0935793 to 0.0935793
Heightened Def Con from 0.0935794 ++++++++++++++++++++++to 0.0935794
Heightened Def Con from 0.0935794 to 0.0935794
Heightened Def Con from 0.0935794 to 0.0935794
Heightened Def Con from 0.0936792 to 0.0936792
Heightened Def Con from 0.0936793 +++to 0.0936793
Heightened Def Con from 0.0936794 ++++++++++++++++++++++++++to 0.0936794
Heightened Def Con from 0.0937724 to 0.0937724
Heightened Def Con from 0.0937794 +to 0.0937794
Heightened Def Con from 0.0937794 to 0.0937794
Heightened Def Con from 0.0938793 to 0.0938793
Heightened Def Con from 0.0938794 to 0.0938794
Heightened Def Con from 0.0938794 to 0.0938794
Heightened Def Con from 0.0939793 +to 0.0939793
Heightened Def Con from 0.0939794 ++++++++++++++++++++++++++++to 0.0939794
Heightened Def Con from 0.0940724 to 0.0940724
Heightened Def Con from 0.0940792 to 0.0940792
Heightened Def Con from 0.0940793 +to 0.0940793
Heightened Def Con from 0.0940794 to 0.0940794
Heightened Def Con from 0.0940794 to 0.0940794
Heightened Def Con from 0.0940794 to 0.0940794
Heightened Def Con from 0.0941794 ++++++++++++++++++++++to 0.0941794
Heightened Def Con from 0.0941794 to 0.0941794
Heightened Def Con from 0.0941794 to 0.0941794
Heightened Def Con from 0.0941794 to 0.0941794
Heightened Def Con from 0.0942724 to 0.0942724
Heightened Def Con from 0.0942724 to 0.0942724
Heightened Def Con from 0.094279 to 0.094279
Heightened Def Con from 0.0942793 to 0.0942793
Heightened Def Con from 0.0942793 to 0.0942793
Heightened Def Con from 0.0942794 ++to 0.0942794
Heightened Def Con from 0.0942794 to 0.0942794
Heightened Def Con from 0.0942794 to 0.0942794
Heightened Def Con from 0.0943724 to 0.0943724
Heightened Def Con from 0.0943724 to 0.0943724
Heightened Def Con from 0.0943794 to 0.0943794
Heightened Def Con from 0.0944792 to 0.0944792
Heightened Def Con from 0.0944793 +to 0.0944793
Heightened Def Con from 0.0944794 ++to 0.0944794
Heightened Def Con from 0.0944794 to 0.0944794
Heightened Def Con from 0.0944794 to 0.0944794
Heightened Def Con from 0.0944794 +to 0.0944794
Heightened Def Con from 0.0945724 to 0.0945724
Heightened Def Con from 0.0945794 ++to 0.0945794
Heightened Def Con from 0.0945794 to 0.0945794
Heightened Def Con from 0.0945794 to 0.0945794
Heightened Def Con from 0.0946792 to 0.0946792
Heightened Def Con from 0.0946793 ++++++++to 0.0946793
Heightened Def Con from 0.0946794 +to 0.0946794
Heightened Def Con from 0.0946794 to 0.0946794
Heightened Def Con from 0.0946794 to 0.0946794
Heightened Def Con from 0.0946794 ++++++++++++++++++++++++to 0.0946794
Heightened Def Con from 0.0947792 to 0.0947792
Heightened Def Con from 0.0947794 to 0.0947794
Heightened Def Con from 0.0947794 to 0.0947794
Heightened Def Con from 0.0947794 +++++++++++++++++++++++++to 0.0947794
Heightened Def Con from 0.0947794 to 0.0947794
Heightened Def Con from 0.0947794 to 0.0947794
Heightened Def Con from 0.0948793 +to 0.0948793
Heightened Def Con from 0.0948794 to 0.0948794
Heightened Def Con from 0.0948794 +to 0.0948794
Heightened Def Con from 0.0948794 to 0.0948794
Heightened Def Con from 0.0948794 to 0.0948794
Heightened Def Con from 0.0949793 +to 0.0949793
Heightened Def Con from 0.0949794 to 0.0949794
Heightened Def Con from 0.0949794 +++to 0.0949794
Heightened Def Con from 0.0949794 +to 0.0949794
Heightened Def Con from 0.0950724 to 0.0950724
Heightened Def Con from 0.0950793 +to 0.0950793
Heightened Def Con from 0.0950794 +++to 0.0950794
Heightened Def Con from 0.0950794 to 0.0950794
Heightened Def Con from 0.0951724 +to 0.0951724
Heightened Def Con from 0.0951724 to 0.0951724
Heightened Def Con from 0.0951793 ++++++++++++++++++++++++to 0.0951793
Heightened Def Con from 0.0951794 to 0.0951794
Heightened Def Con from 0.095279 to 0.095279
Heightened Def Con from 0.0952794 +to 0.0952794
Heightened Def Con from 0.0952794 to 0.0952794
Heightened Def Con from 0.0953724 +to 0.0953724
Heightened Def Con from 0.0953724 to 0.0953724
Heightened Def Con from 0.0953794 to 0.0953794
Heightened Def Con from 0.0954724 to 0.0954724
Heightened Def Con from 0.0954724 to 0.0954724
Heightened Def Con from 0.0954793 +to 0.0954793
Heightened Def Con from 0.0954794 +++++++++++++++++++++++++++++++++++++++to 0.0954794
Heightened Def Con from 0.0954794 ++++++++++++++++++to 0.0954794
Heightened Def Con from 0.0954794 to 0.0954794
Heightened Def Con from 0.0954802 +to 0.0954802
Heightened Def Con from 0.0955793 to 0.0955793
Heightened Def Con from 0.0955793 to 0.0955793
Heightened Def Con from 0.0955794 +++++++++++++++++++to 0.0955794
Heightened Def Con from 0.0955794 to 0.0955794
Heightened Def Con from 0.0956794 to 0.0956794
Heightened Def Con from 0.0956794 to 0.0956794
Heightened Def Con from 0.0956794 to 0.0956794
Heightened Def Con from 0.0957724 to 0.0957724
Heightened Def Con from 0.095779 to 0.095779
Heightened Def Con from 0.0957794 to 0.0957794
Heightened Def Con from 0.0957794 to 0.0957794
Heightened Def Con from 0.0957794 to 0.0957794
Heightened Def Con from 0.0958724 +to 0.0958724
Heightened Def Con from 0.0958793 to 0.0958793
Heightened Def Con from 0.0958794 ++++++++++++++++++++++++to 0.0958794
Heightened Def Con from 0.0958794 to 0.0958794
Heightened Def Con from 0.0958794 to 0.0958794
Heightened Def Con from 0.0959792 to 0.0959792
Heightened Def Con from 0.0959793 +to 0.0959793
Heightened Def Con from 0.0959794 +++++++++++++++++++++++++to 0.0959794
Heightened Def Con from 0.0959794 to 0.0959794
Heightened Def Con from 0.0960724 to 0.0960724
Heightened Def Con from 0.0960724 to 0.0960724
Heightened Def Con from 0.0960793 +++++++++++++++++++++++++to 0.0960793
Heightened Def Con from 0.0960794 ++to 0.0960794
Heightened Def Con from 0.0960794 to 0.0960794
Heightened Def Con from 0.0960794 to 0.0960794
Heightened Def Con from 0.0961724 to 0.0961724
Heightened Def Con from 0.0961794 to 0.0961794
Heightened Def Con from 0.0961794 to 0.0961794
Heightened Def Con from 0.0961794 +to 0.0961794
Heightened Def Con from 0.0962724 to 0.0962724
Heightened Def Con from 0.0962791 to 0.0962791
Heightened Def Con from 0.0962794 +to 0.0962794
Heightened Def Con from 0.0962794 to 0.0962794
Heightened Def Con from 0.0962794 +to 0.0962794
Heightened Def Con from 0.0962794 to 0.0962794
Heightened Def Con from 0.0962794 to 0.0962794
Heightened Def Con from 0.0963793 ++++++++++++++++to 0.0963793
Heightened Def Con from 0.0963793 to 0.0963793
Heightened Def Con from 0.0963794 ++to 0.0963794
Heightened Def Con from 0.0963794 to 0.0963794
Heightened Def Con from 0.0963794 to 0.0963794
Heightened Def Con from 0.0964794 +to 0.0964794
Heightened Def Con from 0.0964794 to 0.0964794
Heightened Def Con from 0.0964794 to 0.0964794
Heightened Def Con from 0.0965792 to 0.0965792
Heightened Def Con from 0.0965793 ++++++++++++++++to 0.0965793
Heightened Def Con from 0.0965793 to 0.0965793
Heightened Def Con from 0.0965794 ++++++++++++++++++++++++++++to 0.0965794
Heightened Def Con from 0.0966792 to 0.0966792
Heightened Def Con from 0.0966793 to 0.0966793
Heightened Def Con from 0.0966793 to 0.0966793
Heightened Def Con from 0.0966794 ++++++++++++to 0.0966794
Heightened Def Con from 0.0966794 to 0.0966794
Heightened Def Con from 0.0966794 +++++++++++++++++++to 0.0966794
Heightened Def Con from 0.0967794 +++++++++++++++++to 0.0967794
Heightened Def Con from 0.0967794 to 0.0967794
Heightened Def Con from 0.0967794 to 0.0967794
Heightened Def Con from 0.0968724 to 0.0968724
Heightened Def Con from 0.0968793 to 0.0968793
Heightened Def Con from 0.0968794 to 0.0968794
Heightened Def Con from 0.0968794 to 0.0968794
Heightened Def Con from 0.0968794 to 0.0968794
Heightened Def Con from 0.0969724 to 0.0969724
Heightened Def Con from 0.0969794 +to 0.0969794
Heightened Def Con from 0.0970724 to 0.0970724
Heightened Def Con from 0.0970793 +to 0.0970793
Heightened Def Con from 0.0970794 +++to 0.0970794
Heightened Def Con from 0.0970794 to 0.0970794
Heightened Def Con from 0.0970794 to 0.0970794
Heightened Def Con from 0.0971724 to 0.0971724
Heightened Def Con from 0.0971794 to 0.0971794
Heightened Def Con from 0.0972724 to 0.0972724
Heightened Def Con from 0.0972724 to 0.0972724
Heightened Def Con from 0.0972794 ++++++++++++++++++++++++to 0.0972794
Heightened Def Con from 0.0972794 to 0.0972794
Heightened Def Con from 0.0973793 to 0.0973793
Heightened Def Con from 0.0973793 to 0.0973793
Heightened Def Con from 0.0973794 to 0.0973794
Heightened Def Con from 0.0973794 +to 0.0973794
Heightened Def Con from 0.0973794 to 0.0973794
Heightened Def Con from 0.0974792 to 0.0974792
Heightened Def Con from 0.0974793 +to 0.0974793
Heightened Def Con from 0.0974794 to 0.0974794
Heightened Def Con from 0.0975793 to 0.0975793
Heightened Def Con from 0.0975794 +++++++++++++++++++++++++++to 0.0975794
Heightened Def Con from 0.0976791 to 0.0976791
Heightened Def Con from 0.0976794 +to 0.0976794
Heightened Def Con from 0.0976794 to 0.0976794
Heightened Def Con from 0.0977724 to 0.0977724
Heightened Def Con from 0.0977793 +to 0.0977793
Heightened Def Con from 0.0977794 +to 0.0977794
Heightened Def Con from 0.0978794 ++to 0.0978794
Heightened Def Con from 0.0978794 to 0.0978794
Heightened Def Con from 0.0978794 +to 0.0978794
Heightened Def Con from 0.0979792 to 0.0979792
Heightened Def Con from 0.0979793 +to 0.0979793
Heightened Def Con from 0.0979794 to 0.0979794
Heightened Def Con from 0.0979794 to 0.0979794
Heightened Def Con from 0.0980724 to 0.0980724
Heightened Def Con from 0.0980724 to 0.0980724
Heightened Def Con from 0.0980794 +to 0.0980794
Heightened Def Con from 0.0980794 to 0.0980794
Heightened Def Con from 0.0981724 to 0.0981724
Heightened Def Con from 0.0981794 to 0.0981794
Heightened Def Con from 0.098279 to 0.098279
Heightened Def Con from 0.0982793 ++to 0.0982793
Heightened Def Con from 0.0982793 to 0.0982793
Heightened Def Con from 0.0982794 to 0.0982794
Heightened Def Con from 0.0982794 to 0.0982794
Heightened Def Con from 0.0982794 +++to 0.0982794
Heightened Def Con from 0.0982794 to 0.0982794
Heightened Def Con from 0.0982794 to 0.0982794
Heightened Def Con from 0.0983724 +to 0.0983724
Heightened Def Con from 0.0983794 to 0.0983794
Heightened Def Con from 0.0983794 to 0.0983794
Heightened Def Con from 0.0983794 to 0.0983794
Heightened Def Con from 0.0984793 +to 0.0984793
Heightened Def Con from 0.0984794 ++++++++++++++++++++++++++++to 0.0984794
Heightened Def Con from 0.0985793 +to 0.0985793
Heightened Def Con from 0.0985794 ++to 0.0985794
Heightened Def Con from 0.0985794 to 0.0985794
Heightened Def Con from 0.0985794 to 0.0985794
Heightened Def Con from 0.0985794 to 0.0985794
Heightened Def Con from 0.0986724 to 0.0986724
Heightened Def Con from 0.0986794 to 0.0986794
Heightened Def Con from 0.0986794 to 0.0986794
Heightened Def Con from 0.0987792 to 0.0987792
Heightened Def Con from 0.0987793 +to 0.0987793
Heightened Def Con from 0.0987794 +++++++++++++++++++++++to 0.0987794
Heightened Def Con from 0.0987794 to 0.0987794
Heightened Def Con from 0.0987794 to 0.0987794
Heightened Def Con from 0.0988793 to 0.0988793
Heightened Def Con from 0.0988794 to 0.0988794
Heightened Def Con from 0.0988794 to 0.0988794
Heightened Def Con from 0.0989794 +to 0.0989794
Heightened Def Con from 0.0989794 to 0.0989794
Heightened Def Con from 0.0990724 to 0.0990724
Heightened Def Con from 0.0990724 to 0.0990724
Heightened Def Con from 0.0990793 to 0.0990793
Heightened Def Con from 0.0990794 +to 0.0990794
Heightened Def Con from 0.0990794 to 0.0990794
Heightened Def Con from 0.0990794 to 0.0990794
Heightened Def Con from 0.0990794 to 0.0990794
Heightened Def Con from 0.0991794 +++to 0.0991794
Heightened Def Con from 0.0991794 to 0.0991794
Heightened Def Con from 0.0992792 to 0.0992792
Heightened Def Con from 0.0992793 +to 0.0992793
Heightened Def Con from 0.0992794 ++++++++++++++++++++++++++++to 0.0992794
Heightened Def Con from 0.0992794 to 0.0992794
Heightened Def Con from 0.0993794 +to 0.0993794
Heightened Def Con from 0.0993794 to 0.0993794
Heightened Def Con from 0.0993794 to 0.0993794
Heightened Def Con from 0.0994794 ++++++++++++++++++++++++++++to 0.0994794
Heightened Def Con from 0.0994794 to 0.0994794
Heightened Def Con from 0.0994794 +++++++++++++++++++to 0.0994794
Heightened Def Con from 0.0995792 to 0.0995792
Heightened Def Con from 0.0995793 +to 0.0995793
Heightened Def Con from 0.0995794 ++++++++++++++++++++++++to 0.0995794
Heightened Def Con from 0.0995794 to 0.0995794
Heightened Def Con from 0.0995794 to 0.0995794
Heightened Def Con from 0.0996724 to 0.0996724
Heightened Def Con from 0.0996794 ++++++++++++++++++++++++to 0.0996794
Heightened Def Con from 0.0997724 to 0.0997724
Heightened Def Con from 0.0997794 +to 0.0997794
Heightened Def Con from 0.0997794 ++to 0.0997794
Heightened Def Con from 0.0997794 to 0.0997794
Heightened Def Con from 0.0997794 to 0.0997794
Heightened Def Con from 0.0998724 +to 0.0998724
Heightened Def Con from 0.0998793 +to 0.0998793
Heightened Def Con from 0.0998794 to 0.0998794
Heightened Def Con from 0.0998794 to 0.0998794
Heightened Def Con from 0.0998794 +to 0.0998794
Heightened Def Con from 0.0998794 +to 0.0998794
Heightened Def Con from 0.0999793 +to 0.0999793
Heightened Def Con from 0.0999794 to 0.0999794
Heightened Def Con from 0.0999794 to 0.0999794
Heightened Def Con from 0.0999794 to 0.0999794
N-Period=100
Fourier components of V(vout)
DC component:0.0174341

Harmonic	Frequency	 Fourier 	Normalized	 Phase  	Normalized
 Number 	  [Hz]   	Component	 Component	[degree]	Phase [deg]
    1   	 1.000e+4	 1.496e+1	 1.000e+0	   90.12	    0.00
    2   	 2.000e+4	 3.420e-2	 2.286e-3	  175.96	   85.85
    3   	 3.000e+4	 3.437e-2	 2.297e-3	   84.02	   -6.10
    4   	 4.000e+4	 3.406e-2	 2.277e-3	   -6.32	  -96.44
    5   	 5.000e+4	 3.322e-2	 2.220e-3	  -96.05	 -186.16
    6   	 6.000e+4	 3.234e-2	 2.162e-3	  174.31	   84.19
    7   	 7.000e+4	 3.112e-2	 2.080e-3	   84.26	   -5.85
    8   	 8.000e+4	 2.940e-2	 1.965e-3	   -5.19	  -95.30
    9   	 9.000e+4	 2.727e-2	 1.822e-3	  -93.52	 -183.64
   10   	 1.000e+5	 2.491e-2	 1.665e-3	  178.87	   88.75
   11   	 1.100e+5	 2.209e-2	 1.476e-3	   91.26	    1.14
   12   	 1.200e+5	 1.892e-2	 1.265e-3	    3.80	  -86.31
   13   	 1.300e+5	 1.590e-2	 1.063e-3	  -83.00	 -173.11
   14   	 1.400e+5	 1.315e-2	 8.791e-4	 -168.58	 -258.70
   15   	 1.500e+5	 1.024e-2	 6.842e-4	  108.21	   18.10
   16   	 1.600e+5	 7.151e-3	 4.780e-4	   29.71	  -60.40
   17   	 1.700e+5	 4.562e-3	 3.049e-4	  -41.22	 -131.33
   18   	 1.800e+5	 2.999e-3	 2.005e-4	 -101.08	 -191.20
   19   	 1.900e+5	 2.790e-3	 1.865e-4	 -149.64	 -239.76
   20   	 2.000e+5	 3.895e-3	 2.604e-4	  150.82	   60.70
Partial Harmonic Distortion: 0.679599%
Total Harmonic Distortion:   0.747771%



Date: Sat Jun 21 12:06:32 2025
Total elapsed time: 37.375 seconds.

tnom = 27
temp = 27
method = modified trap
totiter = 4074164
traniter = 4074158
tranpoints = 974528
accept = 667312
rejected = 322300
matrix size = 179
fillins = 222
solver = Normal
Avg thread counts: 1.0/1.0/1.0/1.0
Matrix Compiler1: 22.52 KB object code size  3.0/1.3/[0.8]
Matrix Compiler2: 19.42 KB object code size  0.9/1.2/[0.6]

