Circuit: * C:\Users\dinod\Desktop\Audio amplifier & power supply\Simulation\Amplifier\Output stage\V3 THD.asc

Warning: Multiple definitions of model "2scr375p" Type: BJT
Warning: Multiple definitions of model "bc857b" Type: BJT
Warning: Multiple definitions of model "bc847c" Type: BJT
Warning: Multiple definitions of model "bc847b" Type: BJT
Direct Newton iteration for .op point succeeded.
N-Period=100
Fourier components of V(vout)
DC component:0.000253067

Harmonic	Frequency	 Fourier 	Normalized	 Phase  	Normalized
 Number 	  [Hz]   	Component	 Component	[degree]	Phase [deg]
    1   	 1.000e+4	 5.000e+0	 1.000e+0	   90.11°	    0.00°
    2   	 2.000e+4	 9.897e-6	 1.979e-6	  -71.04°	 -161.15°
    3   	 3.000e+4	 2.897e-5	 5.794e-6	    4.42°	  -85.68°
    4   	 4.000e+4	 2.182e-6	 4.363e-7	 -108.74°	 -198.85°
    5   	 5.000e+4	 5.509e-6	 1.102e-6	  -37.70°	 -127.81°
    6   	 6.000e+4	 1.189e-6	 2.378e-7	 -143.78°	 -233.89°
    7   	 7.000e+4	 1.356e-6	 2.713e-7	  -81.98°	 -172.09°
    8   	 8.000e+4	 3.866e-7	 7.732e-8	  172.13°	   82.02°
    9   	 9.000e+4	 3.063e-7	 6.126e-8	 -126.01°	 -216.12°
   10   	 1.000e+5	 1.154e-7	 2.308e-8	  131.17°	   41.06°
   11   	 1.100e+5	 6.487e-8	 1.297e-8	 -169.53°	 -259.64°
   12   	 1.200e+5	 3.209e-8	 6.419e-9	   89.84°	   -0.27°
   13   	 1.300e+5	 1.319e-8	 2.637e-9	  145.65°	   55.54°
   14   	 1.400e+5	 8.474e-9	 1.695e-9	   49.04°	  -41.07°
   15   	 1.500e+5	 2.634e-9	 5.268e-10	   99.29°	    9.18°
   16   	 1.600e+5	 2.132e-9	 4.264e-10	   11.04°	  -79.07°
   17   	 1.700e+5	 5.750e-10	 1.150e-10	   61.12°	  -28.99°
   18   	 1.800e+5	 4.411e-10	 8.821e-11	  -16.03°	 -106.14°
   19   	 1.900e+5	 1.901e-10	 3.803e-11	   62.02°	  -28.09°
   20   	 2.000e+5	 7.540e-11	 1.508e-11	   64.59°	  -25.52°
Partial Harmonic Distortion: 0.000625%
Total Harmonic Distortion:   0.000646%



Date: Sat Jun 21 20:51:01 2025
Total elapsed time: 28.094 seconds.

tnom = 27
temp = 27
method = modified trap
totiter = 2005599
traniter = 2005593
tranpoints = 1000699
accept = 1000525
rejected = 174
matrix size = 177
fillins = 221
solver = Normal
Avg thread counts: 1.0/2.0/1.0/1.0
Matrix Compiler1: 22.55 KB object code size  4.5/1.9/[0.9]
Matrix Compiler2: 19.30 KB object code size  1.5/1.8/[0.8]

