Circuit: * C:\Users\dinod\Desktop\Audio amplifier & power supply\Simulation\Amplifier\Output stage\V4 DC.asc

Warning: Multiple definitions of model "2scr375p" Type: BJT
Warning: Multiple definitions of model "bc857b" Type: BJT
Warning: Multiple definitions of model "bc847c" Type: BJT
Warning: Multiple definitions of model "bc847b" Type: BJT
Direct Newton iteration for .op point succeeded.
Heightened Def Con from 1.81701e-10 to 3.1817e-09
N-Period=100
Fourier components of V(vout)
DC component:6.27958

Harmonic	Frequency	 Fourier 	Normalized	 Phase  	Normalized
 Number 	  [Hz]   	Component	 Component	[degree]	Phase [deg]
    1   	 1.000e+4	 2.068e-3	 1.000e+0	   76.87°	    0.00°
    2   	 2.000e+4	 3.867e-5	 1.870e-2	  153.13°	   76.26°
    3   	 3.000e+4	 1.297e-5	 6.274e-3	   55.90°	  -20.97°
    4   	 4.000e+4	 4.109e-6	 1.987e-3	  138.56°	   61.69°
    5   	 5.000e+4	 7.192e-6	 3.478e-3	   43.26°	  -33.60°
    6   	 6.000e+4	 1.454e-6	 7.030e-4	  -50.93°	 -127.80°
    7   	 7.000e+4	 3.737e-6	 1.807e-3	   35.50°	  -41.36°
    8   	 8.000e+4	 2.938e-6	 1.421e-3	  -57.21°	 -134.08°
    9   	 9.000e+4	 1.076e-6	 5.205e-4	   30.53°	  -46.33°
   10   	 1.000e+5	 2.827e-6	 1.367e-3	  -61.24°	 -138.11°
   11   	 1.100e+5	 7.347e-7	 3.553e-4	 -152.71°	 -229.58°
   12   	 1.200e+5	 1.853e-6	 8.963e-4	  -63.91°	 -140.77°
   13   	 1.300e+5	 1.665e-6	 8.054e-4	 -154.89°	 -231.76°
   14   	 1.400e+5	 5.944e-7	 2.875e-4	  -65.66°	 -142.52°
   15   	 1.500e+5	 1.757e-6	 8.497e-4	 -156.34°	 -233.20°
   16   	 1.600e+5	 5.117e-7	 2.474e-4	  113.10°	   36.23°
   17   	 1.700e+5	 1.228e-6	 5.938e-4	 -157.28°	 -234.14°
   18   	 1.800e+5	 1.168e-6	 5.649e-4	  112.37°	   35.50°
   19   	 1.900e+5	 3.972e-7	 1.921e-4	 -157.83°	 -234.70°
   20   	 2.000e+5	 1.274e-6	 6.160e-4	  111.93°	   35.06°
Partial Harmonic Distortion: 2.041269%
Total Harmonic Distortion:   2.047343%



Date: Sat Jun 21 11:09:18 2025
Total elapsed time: 32.669 seconds.

tnom = 27
temp = 27
method = modified trap
totiter = 2528777
traniter = 2528771
tranpoints = 1000976
accept = 1000674
rejected = 303
matrix size = 185
fillins = 238
solver = Normal
Avg thread counts: 1.0/2.0/1.0/1.0
Matrix Compiler1: 24.47 KB object code size  4.0/1.8/[0.9]
Matrix Compiler2: 20.31 KB object code size  1.5/1.7/[0.8]

