Circuit: * C:\Users\dinod\Desktop\Audio amplifier & power supply\Simulation\Amplifier\Output stage\V5 DC (PNP).asc

Warning: Multiple definitions of model "2scr375p" Type: BJT
Warning: Multiple definitions of model "bc857b" Type: BJT
Warning: Multiple definitions of model "bc847c" Type: BJT
Warning: Multiple definitions of model "bc847b" Type: BJT
Direct Newton iteration for .op point succeeded.
N-Period=100
Fourier components of V(vout)
DC component:0.000432536

Harmonic	Frequency	 Fourier 	Normalized	 Phase  	Normalized
 Number 	  [Hz]   	Component	 Component	[degree]	Phase [deg]
    1   	 1.000e+4	 9.997e+0	 1.000e+0	   90.22°	    0.00°
    2   	 2.000e+4	 8.846e-5	 8.848e-6	   61.82°	  -28.40°
    3   	 3.000e+4	 4.043e-4	 4.044e-5	   45.95°	  -44.27°
    4   	 4.000e+4	 1.702e-4	 1.703e-5	  -15.01°	 -105.23°
    5   	 5.000e+4	 1.828e-4	 1.829e-5	   10.21°	  -80.01°
    6   	 6.000e+4	 4.057e-5	 4.058e-6	 -129.94°	 -220.16°
    7   	 7.000e+4	 2.187e-4	 2.187e-5	   15.17°	  -75.05°
    8   	 8.000e+4	 1.682e-4	 1.683e-5	 -104.57°	 -194.79°
    9   	 9.000e+4	 7.821e-5	 7.823e-6	   87.07°	   -3.15°
   10   	 1.000e+5	 3.079e-5	 3.080e-6	  -49.75°	 -139.97°
   11   	 1.100e+5	 1.144e-5	 1.144e-6	 -125.61°	 -215.83°
   12   	 1.200e+5	 1.093e-4	 1.093e-5	  119.90°	   29.68°
   13   	 1.300e+5	 1.622e-4	 1.622e-5	   22.59°	  -67.63°
   14   	 1.400e+5	 5.317e-5	 5.318e-6	  -70.80°	 -161.02°
   15   	 1.500e+5	 8.963e-5	 8.965e-6	   28.14°	  -62.08°
   16   	 1.600e+5	 1.374e-4	 1.375e-5	  -43.33°	 -133.55°
   17   	 1.700e+5	 1.294e-4	 1.294e-5	 -104.92°	 -195.14°
   18   	 1.800e+5	 7.491e-5	 7.493e-6	 -173.08°	 -263.30°
   19   	 1.900e+5	 3.796e-5	 3.797e-6	 -117.65°	 -207.87°
   20   	 2.000e+5	 1.204e-4	 1.204e-5	  174.23°	   84.01°
Partial Harmonic Distortion: 0.006520%
Total Harmonic Distortion:   0.022368%



Date: Sat Jun 21 20:48:19 2025
Total elapsed time: 9.936 seconds.

tnom = 27
temp = 27
method = modified trap
totiter = 870504
traniter = 870496
tranpoints = 358952
accept = 307626
rejected = 51326
matrix size = 189
fillins = 232
solver = Normal
Avg thread counts: 1.0/1.0/1.0/1.0
Matrix Compiler1: 24.31 KB object code size  3.4/1.6/[0.9]
Matrix Compiler2: 20.63 KB object code size  1.1/1.4/[0.7]

