Circuit: * C:\Users\dinod\Desktop\Audio amplifier & power supply\Simulation\Amplifier\OLD\THD analysis - feedback\THD.asc

Warning: Multiple definitions of model "2scr375p" Type: BJT
Warning: Multiple definitions of model "bc857b" Type: BJT
Warning: Multiple definitions of model "bc847c" Type: BJT
Warning: Multiple definitions of model "bc847b" Type: BJT
Direct Newton iteration for .op point succeeded.
N-Period=100
Fourier components of V(vout)
DC component:0.000566076

Harmonic	Frequency	 Fourier 	Normalized	 Phase  	Normalized
 Number 	  [Hz]   	Component	 Component	[degree]	Phase [deg]
    1   	 1.000e+4	 8.070e-15	 1.000e+0	   -1.58°	    0.00°
    2   	 2.000e+4	 8.029e-15	 9.949e-1	   -3.44°	   -1.86°
    3   	 3.000e+4	 8.048e-15	 9.973e-1	   -4.68°	   -3.11°
    4   	 4.000e+4	 7.977e-15	 9.884e-1	   -6.86°	   -5.28°
    5   	 5.000e+4	 8.025e-15	 9.944e-1	   -8.55°	   -6.97°
    6   	 6.000e+4	 7.946e-15	 9.846e-1	   -9.84°	   -8.26°
    7   	 7.000e+4	 7.961e-15	 9.865e-1	  -11.72°	  -10.14°
    8   	 8.000e+4	 7.867e-15	 9.748e-1	  -12.92°	  -11.34°
    9   	 9.000e+4	 7.908e-15	 9.799e-1	  -14.53°	  -12.95°
   10   	 1.000e+5	 7.929e-15	 9.826e-1	  -17.32°	  -15.74°
   11   	 1.100e+5	 7.855e-15	 9.733e-1	  -18.43°	  -16.85°
   12   	 1.200e+5	 7.681e-15	 9.518e-1	  -22.01°	  -20.43°
   13   	 1.300e+5	 7.611e-15	 9.431e-1	  -21.71°	  -20.13°
   14   	 1.400e+5	 7.712e-15	 9.556e-1	  -23.09°	  -21.51°
   15   	 1.500e+5	 7.336e-15	 9.090e-1	  -26.31°	  -24.74°
   16   	 1.600e+5	 7.618e-15	 9.440e-1	  -24.72°	  -23.14°
   17   	 1.700e+5	 7.375e-15	 9.139e-1	  -28.51°	  -26.93°
   18   	 1.800e+5	 7.438e-15	 9.216e-1	  -30.32°	  -28.74°
   19   	 1.900e+5	 7.013e-15	 8.690e-1	  -31.07°	  -29.50°
   20   	 2.000e+5	 7.010e-15	 8.686e-1	  -32.96°	  -31.39°
Partial Harmonic Distortion: 416.366916%
Total Harmonic Distortion:   6991.205890%



Date: Fri Jun 20 20:10:14 2025
Total elapsed time: 2.764 seconds.

tnom = 27
temp = 27
method = modified trap
totiter = 200044
traniter = 200038
tranpoints = 100018
accept = 100018
rejected = 0
matrix size = 174
fillins = 226
solver = Normal
Avg thread counts: 1.0/2.1/1.1/1.0
Matrix Compiler1: 22.33 KB object code size  3.6/2.3/[0.8]
Matrix Compiler2: 18.91 KB object code size  1.2/1.8/[0.6]

