Circuit: * C:\Users\dinod\Desktop\Audio amplifier & power supply\Simulation\PSU\Draft4.asc

Warning: Multiple definitions of model "2scr375p" Type: BJT
Warning: Multiple definitions of model "bc857b" Type: BJT
Warning: Multiple definitions of model "bc847c" Type: BJT
Warning: Multiple definitions of model "bc847b" Type: BJT
WARNING: Node NC_02 is floating.

WARNING: Less than two connections to node nc_02.  This node is used by c1.
u1:_u2:dd: Emission coefficient, N=0.01, too small, limited to 0.1
Direct Newton iteration for .op point succeeded.
Ignoring empty pin current: Ix(u1:adj)
Ignoring empty pin current: Ix(u1:out_1)
Ignoring empty pin current: Ix(u1:adj)
Ignoring empty pin current: Ix(u1:out_1)

Date: Wed Apr  2 23:32:09 2025
Total elapsed time: 0.099 seconds.

tnom = 27
temp = 27
method = modified trap
totiter = 3510
traniter = 3500
tranpoints = 1751
accept = 1360
rejected = 391
matrix size = 37
fillins = 25
solver = Normal
Avg thread counts: 3.1/5.2/5.2/3.1
Matrix Compiler1: 2.23 KB object code size  0.5/0.2/[0.1]
Matrix Compiler2: off  [0.2]/0.2/0.2

