Circuit: * C:\Users\dinod\Desktop\Audio amplifier & power supply\Simulation\PSU\Regulator\Positive\High current reg.asc

Warning: Multiple definitions of model "2scr375p" Type: BJT
Warning: Multiple definitions of model "bc857b" Type: BJT
Warning: Multiple definitions of model "bc847c" Type: BJT
Warning: Multiple definitions of model "bc847b" Type: BJT
WARNING: Node NC_02 is floating.

WARNING: Less than two connections to node nc_02.  This node is used by c1.
u1:_u2:dd: Emission coefficient, N=0.01, too small, limited to 0.1
Direct Newton iteration failed to find .op point.  (Use ".option noopiter" to skip.)
Starting Gmin stepping
Gmin = 10
Gmin = 1.07374
Gmin = 0.115292
Gmin = 0.0123794
Gmin = 0.00132923
Gmin = 0.000142725
Gmin = 1.5325e-05
Gmin = 1.6455e-06
Gmin = 1.76685e-07
Gmin = 1.89714e-08
Gmin = 2.03704e-09
Gmin = 2.18725e-10
Gmin = 2.34854e-11
Gmin = 2.52173e-12
Gmin = 2.70769e-13
Gmin = 0
Gmin stepping succeeded in finding the operating point.

Ignoring empty pin current: Ix(u1:adj)
Ignoring empty pin current: Ix(u1:out_1)
Ignoring empty pin current: Ix(u1:adj)
Ignoring empty pin current: Ix(u1:out_1)
Changing Tseed to 1e-08

Date: Sat May 10 19:25:19 2025
Total elapsed time: 0.120 seconds.

tnom = 27
temp = 27
method = modified trap
totiter = 4000
traniter = 3510
tranpoints = 1750
accept = 1357
rejected = 392
matrix size = 44
fillins = 35
solver = Normal
Avg thread counts: 3.1/5.2/5.2/3.1
Matrix Compiler1: 3.74 KB object code size  1.3/0.5/[0.3]
Matrix Compiler2: off  [0.3]/0.3/0.3

