Circuit: * C:\Users\dinod\Desktop\Audio amplifier & power supply\Simulation\PSU\Regulator basic.asc

u1:_u2:dd: Emission coefficient, N=0.01, too small, limited to 0.1
Direct Newton iteration for .op point succeeded.
Ignoring empty pin current: Ix(u1:adj)
Ignoring empty pin current: Ix(u1:out_1)
Ignoring empty pin current: Ix(u1:adj)
Ignoring empty pin current: Ix(u1:out_1)

Date: Wed Apr  2 23:22:37 2025
Total elapsed time: 0.068 seconds.

tnom = 27
temp = 27
method = modified trap
totiter = 3505
traniter = 3500
tranpoints = 1751
accept = 1360
rejected = 391
matrix size = 33
fillins = 15
solver = Normal
Avg thread counts: 3.1/5.2/5.2/3.1
Matrix Compiler1: 1.40 KB object code size  0.4/0.1/[0.1]
Matrix Compiler2: off  [0.1]/0.3/0.1

