Circuit: * C:\Users\dinod\Desktop\Audio amplifier & power supply\Simulation\PSU\Current limit v1.asc

Limiting fall time of source v1 to 1e-06
Direct Newton iteration failed to find .op point.  (Use ".option noopiter" to skip.)
Starting Gmin stepping
Gmin = 10
Gmin = 1.07374
vernier = 0.5
vernier = 0.25
vernier = 0.125
vernier = 0.0625
vernier = 0.03125
Gmin = 1.31128
vernier = 0.0416667
Gmin = 1.19447
vernier = 0.0555555
vernier = 0.074074
Gmin = 1.02178
vernier = 0.037037
vernier = 0.0185185
vernier = 0.00925925
Gmin = 1.01463
vernier = 0.0123457
vernier = 0.00617283
vernier = 0.00308642
vernier = 0.00154321
vernier = 0.000771604
vernier = 0.000578703
Gmin = 1.00374
vernier = 0.000434027
Gmin = 0
Gmin stepping failed

Starting source stepping with srcstepmethod=0
Could not converge to DC with sources off!
Starting source stepping with srcstepmethod=1
Source Step = 3.0303%
vernier = 0.25
Source Step = 1.70455%
vernier = 0.015625
Source Step = 1.98864%
Source Step = 2.46212%
Source Step = 2.93561%
Source Step = 3.40909%
Source Step = 3.88258%
vernier = 0.0234375
Source Step = 4.56913%
Source Step = 5.27936%
Source Step = 5.98958%
Source Step = 6.69981%
Source Step = 7.41004%
vernier = 0.0351562
Source Step = 8.40436%
Source Step = 9.4697%
Source Step = 10.535%
Source Step = 11.6004%
Source Step = 12.6657%
vernier = 0.0527344
Source Step = 14.1039%
Source Step = 15.7019%
Source Step = 17.3%
Source Step = 18.898%
Source Step = 20.496%
vernier = 0.0791016
Source Step = 22.5734%
Source Step = 24.9704%
Source Step = 27.3674%
Source Step = 29.7644%
Source Step = 32.1615%
vernier = 0.118652
Source Step = 35.1577%
Source Step = 38.7533%
Source Step = 42.3488%
Source Step = 45.9443%
Source Step = 49.5398%
vernier = 0.177979
Source Step = 53.8545%
Source Step = 59.2478%
Source Step = 64.641%
Source Step = 70.0343%
Source Step = 75.4276%
vernier = 0.266968
Source Step = 81.6299%
Source Step = 89.7198%
Source Step = 97.8098%
Source stepping succeeded in finding the operating point.


Date: Mon Apr  7 22:26:51 2025
Total elapsed time: 0.416 seconds.

tnom = 27
temp = 27
method = modified trap
totiter = 13174
traniter = 3409
tranpoints = 1246
accept = 1197
rejected = 49
matrix size = 153
fillins = 358
solver = Normal
Avg thread counts: 3.2/6.9/6.9/3.2
Matrix Compiler1: 26.63 KB object code size  3.4/1.6/[0.8]
Matrix Compiler2: 19.01 KB object code size  1.5/2.1/[0.6]

