Circuit: * C:\Users\dinod\Desktop\Audio amplifier & power supply\Simulation\Power stage\power stage.asc

Warning: Multiple definitions of model "2scr375p" Type: BJT
Warning: Multiple definitions of model "bc857b" Type: BJT
Warning: Multiple definitions of model "bc847c" Type: BJT
Warning: Multiple definitions of model "bc847b" Type: BJT
Direct Newton iteration for .op point succeeded.

Date: Tue Mar 11 20:46:41 2025
Total elapsed time: 0.087 seconds.

tnom = 27
temp = 27
method = modified trap
totiter = 2091
traniter = 2082
tranpoints = 1042
accept = 1042
rejected = 0
matrix size = 24
fillins = 46
solver = Normal
Avg thread counts: 4.5/8.1/8.1/4.5
Matrix Compiler1: 5.52 KB object code size  1.0/0.4/[0.3]
Matrix Compiler2: 3.08 KB object code size  0.2/0.3/[0.2]

