Circuit: * C:\Users\dinod\Desktop\Audio amplifier & power supply\Amplifier OLD\Simulation\Power stage\power stage-transient.asc

Warning: Multiple definitions of model "2scr375p" Type: BJT
Warning: Multiple definitions of model "bc857b" Type: BJT
Warning: Multiple definitions of model "bc847c" Type: BJT
Warning: Multiple definitions of model "bc847b" Type: BJT
WARNING: Less than two connections to node n003.  This node is used by r12.
Direct Newton iteration for .op point succeeded.

Date: Thu Mar 13 20:59:50 2025
Total elapsed time: 0.073 seconds.

tnom = 27
temp = 27
method = modified trap
totiter = 2793
traniter = 2784
tranpoints = 1256
accept = 1146
rejected = 110
matrix size = 27
fillins = 24
solver = Normal
Avg thread counts: 3.6/6.9/6.2/3.6
Matrix Compiler1: 3.26 KB object code size  0.6/0.2/[0.2]
Matrix Compiler2: off  [0.1]/0.2/0.2

